@<TRIPOS>MOLECULE
104775
 13 12 0 0 0
SMALL
GASTEIGER

@<TRIPOS>ATOM
      1 O           1.9309    0.5161    0.5777 O.co2   1  UNL1       -0.5498
      2 O           0.8423   -1.2575   -0.3626 O.co2   1  UNL1       -0.5498
      3 C          -1.5562    0.2123   -0.5305 C.3     1  UNL1       -0.0508
      4 C          -0.1776    0.8611   -0.4683 C.3     1  UNL1       -0.0135
      5 C          -2.0247   -0.2901    0.8276 C.3     1  UNL1       -0.0649
      6 C           0.9854   -0.0419   -0.0438 C.2     1  UNL1        0.0417
      7 H          -1.5540   -0.6207   -1.2428 H       1  UNL1        0.0266
      8 H          -2.2778    0.9479   -0.9051 H       1  UNL1        0.0266
      9 H           0.0735    1.2537   -1.4614 H       1  UNL1        0.0325
     10 H          -0.2164    1.7226    0.2102 H       1  UNL1        0.0325
     11 H          -1.3754   -1.0807    1.2146 H       1  UNL1        0.0230
     12 H          -2.0476    0.5242    1.5589 H       1  UNL1        0.0230
     13 H          -3.0368   -0.6995    0.7472 H       1  UNL1        0.0230
@<TRIPOS>UNITY_ATOM_ATTR
1 1
charge -1
@<TRIPOS>BOND
     1     1     6   ar
     2     2     6   ar
     3     3     4    1
     4     3     5    1
     5     3     7    1
     6     3     8    1
     7     4     6    1
     8     4     9    1
     9     4    10    1
    10     5    11    1
    11     5    12    1
    12     5    13    1
