@<TRIPOS>MOLECULE
449193
 40 42 0 0 0
SMALL
GASTEIGER

@<TRIPOS>ATOM
      1 CL          3.2401    2.1770    1.6154 Cl      1  UNL1       -0.0800
      2 CL          4.0084   -1.9308   -1.9125 Cl      1  UNL1       -0.0800
      3 F          -5.9565   -1.4432    0.4520 F       1  UNL1       -0.1663
      4 F          -4.8484   -3.2223   -0.1277 F       1  UNL1       -0.1663
      5 O          -2.4647    1.0995   -1.0814 O.3     1  UNL1       -0.4880
      6 O          -3.9173   -1.1829   -0.4446 O.3     1  UNL1       -0.4305
      7 O           2.0367   -1.6478    1.5656 O.2     1  UNL1       -0.2698
      8 N           2.3308   -0.0989   -0.1722 N.am    1  UNL1       -0.2790
      9 N           6.4659    0.6100   -0.0970 N.ar    1  UNL1       -0.2602
     10 C          -3.6261    3.1437   -0.6984 C.3     1  UNL1       -0.0068
     11 C          -4.6748    3.3407    0.3522 C.3     1  UNL1       -0.0468
     12 C          -3.7970    4.4864   -0.0583 C.3     1  UNL1       -0.0468
     13 C          -2.4179    2.3354   -0.3711 C.3     1  UNL1        0.0926
     14 C          -1.8532    0.0289   -0.5020 C.ar    1  UNL1        0.1628
     15 C          -2.5824   -1.1163   -0.1819 C.ar    1  UNL1        0.1683
     16 C          -0.4865    0.0845   -0.2289 C.ar    1  UNL1       -0.0042
     17 C           0.1512   -1.0051    0.3643 C.ar    1  UNL1        0.0407
     18 C          -1.9449   -2.2057    0.4115 C.ar    1  UNL1       -0.0154
     19 C          -0.5780   -2.1503    0.6845 C.ar    1  UNL1       -0.0459
     20 C           1.5760   -0.9470    0.6500 C.2     1  UNL1        0.2484
     21 C           3.7268    0.1407   -0.1469 C.ar    1  UNL1        0.0736
     22 C          -4.7130   -1.9880    0.4164 C.3     1  UNL1        0.3894
     23 C           4.2300    1.1590    0.6413 C.ar    1  UNL1        0.0816
     24 C           4.5679   -0.6472   -0.9107 C.ar    1  UNL1        0.0816
     25 C           5.6021    1.3525    0.6314 C.ar    1  UNL1        0.0478
     26 C           5.9249   -0.3731   -0.8509 C.ar    1  UNL1        0.0478
     27 H          -3.9320    3.0557   -1.7336 H       1  UNL1        0.0334
     28 H          -5.7097    3.3584    0.0326 H       1  UNL1        0.0269
     29 H          -4.5209    2.9162    1.3366 H       1  UNL1        0.0269
     30 H          -3.0485    4.8252    0.6474 H       1  UNL1        0.0269
     31 H          -4.2435    5.2758   -0.6506 H       1  UNL1        0.0269
     32 H          -1.5252    2.8805   -0.6993 H       1  UNL1        0.0699
     33 H          -2.3357    2.1655    0.7105 H       1  UNL1        0.0699
     34 H           0.0538    0.9962   -0.4691 H       1  UNL1        0.0663
     35 H          -2.4684   -3.1267    0.6501 H       1  UNL1        0.0655
     36 H          -0.0987   -3.0148    1.1368 H       1  UNL1        0.0626
     37 H           1.8974    0.2096   -1.0396 H       1  UNL1        0.1552
     38 H          -4.3486   -2.0539    1.4476 H       1  UNL1        0.1520
     39 H           6.0707    2.1323    1.2245 H       1  UNL1        0.0845
     40 H           6.6469   -0.9490   -1.4222 H       1  UNL1        0.0845
@<TRIPOS>BOND
     1     1    23    1
     2     2    24    1
     3     3    22    1
     4     4    22    1
     5     5    13    1
     6     5    14    1
     7     6    15    1
     8     6    22    1
     9     7    20    2
    10     8    20   am
    11     8    21    1
    12     8    37    1
    13     9    25   ar
    14     9    26   ar
    15    10    11    1
    16    10    12    1
    17    10    13    1
    18    10    27    1
    19    11    12    1
    20    11    28    1
    21    11    29    1
    22    12    30    1
    23    12    31    1
    24    13    32    1
    25    13    33    1
    26    14    15   ar
    27    14    16   ar
    28    15    18   ar
    29    16    17   ar
    30    16    34    1
    31    17    19   ar
    32    17    20    1
    33    18    19   ar
    34    18    35    1
    35    19    36    1
    36    21    23   ar
    37    21    24   ar
    38    22    38    1
    39    23    25   ar
    40    24    26   ar
    41    25    39    1
    42    26    40    1
