@<TRIPOS>MOLECULE
5092
 41 43 0 0 0
SMALL
GASTEIGER

@<TRIPOS>ATOM
      1 O          -2.2269    0.1355   -0.3387 O.3     1  UNL1       -0.4852
      2 O          -2.2637   -2.5420    0.4049 O.3     1  UNL1       -0.4915
      3 O           6.0293    0.6346    0.4693 O.2     1  UNL1       -0.2758
      4 N           4.1023    1.8435   -0.0812 N.am    1  UNL1       -0.3147
      5 C          -2.3894    1.2758    0.4955 C.3     1  UNL1        0.1004
      6 C          -3.6638    1.1274    1.3123 C.3     1  UNL1       -0.0158
      7 C          -2.6634    2.5131   -0.3458 C.3     1  UNL1       -0.0158
      8 C          -4.7837    1.5211    0.3500 C.3     1  UNL1       -0.0496
      9 C          -4.1350    2.3855   -0.7314 C.3     1  UNL1       -0.0496
     10 C           2.6667    0.0697   -0.5753 C.3     1  UNL1        0.0080
     11 C           2.7049    1.5673   -0.2638 C.3     1  UNL1        0.0188
     12 C           3.8710   -0.4560    0.2297 C.3     1  UNL1        0.0322
     13 C           1.3483   -0.6250   -0.3143 C.ar    1  UNL1       -0.0387
     14 C          -1.0575   -0.5658   -0.2045 C.ar    1  UNL1        0.1626
     15 C           0.1512    0.0787   -0.4465 C.ar    1  UNL1       -0.0128
     16 C           4.8365    0.7037    0.2175 C.2     1  UNL1        0.2137
     17 C           1.3299   -1.9689    0.0592 C.ar    1  UNL1       -0.0546
     18 C          -1.0827   -1.9056    0.1680 C.ar    1  UNL1        0.1615
     19 C           0.1145   -2.6091    0.3003 C.ar    1  UNL1       -0.0160
     20 C          -2.8882   -3.1835   -0.7053 C.3     1  UNL1        0.0790
     21 H          -1.5292    1.4270    1.1594 H       1  UNL1        0.0733
     22 H          -3.6520    1.8238    2.1591 H       1  UNL1        0.0301
     23 H          -3.8107    0.1135    1.6973 H       1  UNL1        0.0301
     24 H          -2.0269    2.5782   -1.2333 H       1  UNL1        0.0301
     25 H          -2.5201    3.4183    0.2559 H       1  UNL1        0.0301
     26 H          -5.5833    2.0561    0.8724 H       1  UNL1        0.0266
     27 H          -5.2297    0.6290   -0.1047 H       1  UNL1        0.0266
     28 H          -4.2317    1.8930   -1.7061 H       1  UNL1        0.0266
     29 H          -4.6136    3.3667   -0.8119 H       1  UNL1        0.0266
     30 H           2.8947   -0.0631   -1.6434 H       1  UNL1        0.0369
     31 H           2.3178    2.1829   -1.0810 H       1  UNL1        0.0468
     32 H           2.1899    1.8266    0.6676 H       1  UNL1        0.0468
     33 H           4.3252   -1.3321   -0.2422 H       1  UNL1        0.0365
     34 H           3.6170   -0.6804    1.2715 H       1  UNL1        0.0365
     35 H           0.1497    1.1186   -0.7598 H       1  UNL1        0.0658
     36 H           4.5039    2.7753   -0.1122 H       1  UNL1        0.1487
     37 H           2.2450   -2.5453    0.1569 H       1  UNL1        0.0622
     38 H           0.1073   -3.6569    0.5885 H       1  UNL1        0.0655
     39 H          -3.1264   -2.4552   -1.4869 H       1  UNL1        0.0660
     40 H          -3.8190   -3.6401   -0.3578 H       1  UNL1        0.0660
     41 H          -2.2414   -3.9695   -1.1079 H       1  UNL1        0.0660
@<TRIPOS>BOND
     1     1     5    1
     2     1    14    1
     3     2    18    1
     4     2    20    1
     5     3    16    2
     6     4    11    1
     7     4    16   am
     8     4    36    1
     9     5     6    1
    10     5     7    1
    11     5    21    1
    12     6     8    1
    13     6    22    1
    14     6    23    1
    15     7     9    1
    16     7    24    1
    17     7    25    1
    18     8     9    1
    19     8    26    1
    20     8    27    1
    21     9    28    1
    22     9    29    1
    23    10    11    1
    24    10    12    1
    25    10    13    1
    26    10    30    1
    27    11    31    1
    28    11    32    1
    29    12    16    1
    30    12    33    1
    31    12    34    1
    32    13    15   ar
    33    13    17   ar
    34    14    15   ar
    35    14    18   ar
    36    15    35    1
    37    17    19   ar
    38    17    37    1
    39    18    19   ar
    40    19    38    1
    41    20    39    1
    42    20    40    1
    43    20    41    1
