448055
  -OEChem-06302614473D

 41 43  0     1  0  0  0  0  0999 V2000
   -2.1433    0.2067   -0.3500 O   0  0  0  0  0  0  0  0  0  0  0  0
   -2.4260   -2.4611    0.3755 O   0  0  0  0  0  0  0  0  0  0  0  0
    4.9802    2.4349    0.0249 O   0  0  0  0  0  0  0  0  0  0  0  0
    4.8752    0.1175    0.3360 N   0  0  0  0  0  0  0  0  0  0  0  0
   -2.2226    1.3528    0.4884 C   0  0  0  0  0  0  0  0  0  0  0  0
   -3.5206    1.3115    1.2799 C   0  0  0  0  0  0  0  0  0  0  0  0
   -2.3722    2.6132   -0.3501 C   0  0  0  0  0  0  0  0  0  0  0  0
   -4.5834    1.8054    0.2993 C   0  0  0  0  0  0  0  0  0  0  0  0
   -3.8416    2.6155   -0.7642 C   0  0  0  0  0  0  0  0  0  0  0  0
    2.7299   -0.2819   -0.4946 C   0  0  2  0  0  0  0  0  0  0  0  0
    3.8601   -0.8984    0.3324 C   0  0  0  0  0  0  0  0  0  0  0  0
    2.8866    1.2191   -0.1831 C   0  0  0  0  0  0  0  0  0  0  0  0
    1.3515   -0.8609   -0.2630 C   0  0  0  0  0  0  0  0  0  0  0  0
   -1.0418   -0.5940   -0.1983 C   0  0  0  0  0  0  0  0  0  0  0  0
    0.2226   -0.0555   -0.4133 C   0  0  0  0  0  0  0  0  0  0  0  0
    4.3691    1.3781    0.0487 C   0  0  0  0  0  0  0  0  0  0  0  0
    1.2096   -2.1999    0.1014 C   0  0  0  0  0  0  0  0  0  0  0  0
   -1.1901   -1.9284    0.1650 C   0  0  0  0  0  0  0  0  0  0  0  0
   -0.0610   -2.7335    0.3155 C   0  0  0  0  0  0  0  0  0  0  0  0
   -3.0822   -3.0408   -0.7504 C   0  0  0  0  0  0  0  0  0  0  0  0
   -1.3656    1.4257    1.1693 H   0  0  0  0  0  0  0  0  0  0  0  0
   -3.4649    2.0001    2.1313 H   0  0  0  0  0  0  0  0  0  0  0  0
   -3.7622    0.3123    1.6554 H   0  0  0  0  0  0  0  0  0  0  0  0
   -1.7154    2.6272   -1.2250 H   0  0  0  0  0  0  0  0  0  0  0  0
   -2.1627    3.4998    0.2600 H   0  0  0  0  0  0  0  0  0  0  0  0
   -5.3437    2.4053    0.8099 H   0  0  0  0  0  0  0  0  0  0  0  0
   -5.0961    0.9575   -0.1695 H   0  0  0  0  0  0  0  0  0  0  0  0
   -3.9616    2.1378   -1.7436 H   0  0  0  0  0  0  0  0  0  0  0  0
   -4.2317    3.6348   -0.8474 H   0  0  0  0  0  0  0  0  0  0  0  0
    2.9661   -0.4289   -1.5592 H   0  0  0  0  0  0  0  0  0  0  0  0
    3.5771   -1.0894    1.3733 H   0  0  0  0  0  0  0  0  0  0  0  0
    4.2640   -1.8126   -0.1121 H   0  0  0  0  0  0  0  0  0  0  0  0
    2.3618    1.5176    0.7311 H   0  0  0  0  0  0  0  0  0  0  0  0
    2.5651    1.8447   -1.0207 H   0  0  0  0  0  0  0  0  0  0  0  0
    0.3164    0.9820   -0.7203 H   0  0  0  0  0  0  0  0  0  0  0  0
    5.8469   -0.0541    0.5741 H   0  0  0  0  0  0  0  0  0  0  0  0
    2.0699   -2.8532    0.2128 H   0  0  0  0  0  0  0  0  0  0  0  0
   -0.1645   -3.7781    0.5968 H   0  0  0  0  0  0  0  0  0  0  0  0
   -3.2413   -2.2908   -1.5316 H   0  0  0  0  0  0  0  0  0  0  0  0
   -4.0555   -3.4166   -0.4235 H   0  0  0  0  0  0  0  0  0  0  0  0
   -2.4982   -3.8780   -1.1458 H   0  0  0  0  0  0  0  0  0  0  0  0
  1  5  1  0  0  0  0
  1 14  1  0  0  0  0
  2 18  1  0  0  0  0
  2 20  1  0  0  0  0
  3 16  2  0  0  0  0
  4 11  1  0  0  0  0
  4 16  1  0  0  0  0
  4 36  1  0  0  0  0
  5  6  1  0  0  0  0
  5  7  1  0  0  0  0
  5 21  1  0  0  0  0
  6  8  1  0  0  0  0
  6 22  1  0  0  0  0
  6 23  1  0  0  0  0
  7  9  1  0  0  0  0
  7 24  1  0  0  0  0
  7 25  1  0  0  0  0
  8  9  1  0  0  0  0
  8 26  1  0  0  0  0
  8 27  1  0  0  0  0
  9 28  1  0  0  0  0
  9 29  1  0  0  0  0
 10 11  1  0  0  0  0
 10 12  1  0  0  0  0
 10 13  1  0  0  0  0
 10 30  1  0  0  0  0
 11 31  1  0  0  0  0
 11 32  1  0  0  0  0
 12 16  1  0  0  0  0
 12 33  1  0  0  0  0
 12 34  1  0  0  0  0
 13 15  2  0  0  0  0
 13 17  1  0  0  0  0
 14 15  1  0  0  0  0
 14 18  2  0  0  0  0
 15 35  1  0  0  0  0
 17 19  2  0  0  0  0
 17 37  1  0  0  0  0
 18 19  1  0  0  0  0
 19 38  1  0  0  0  0
 20 39  1  0  0  0  0
 20 40  1  0  0  0  0
 20 41  1  0  0  0  0
M  END
> <PUBCHEM_COMPOUND_CID>
448055

> <PUBCHEM_CONFORMER_RMSD>
0.8

> <PUBCHEM_CONFORMER_DIVERSEORDER>
1
32
45
37
46
44
48
25
43
16
42
28
24
12
33
18
21
27
14
8
36
39
26
9
19
30
40
4
15
47
38
6
41
3
5
10
23
34
35
31
29
2
22
13
7
20
17
11

> <PUBCHEM_MMFF94_PARTIAL_CHARGES>
20
1 -0.36
10 0.14
11 0.3
12 0.06
13 -0.14
14 0.08
15 -0.15
16 0.57
17 -0.15
18 0.08
19 -0.15
2 -0.36
20 0.28
3 -0.57
35 0.15
36 0.37
37 0.15
38 0.15
4 -0.73
5 0.28

> <PUBCHEM_EFFECTIVE_ROTOR_COUNT>
5.8

> <PUBCHEM_PHARMACOPHORE_FEATURES>
7
1 1 acceptor
1 2 acceptor
1 3 acceptor
1 4 donor
5 4 10 11 12 16 rings
5 5 6 7 8 9 rings
6 13 14 15 17 18 19 rings

> <PUBCHEM_HEAVY_ATOM_COUNT>
20

> <PUBCHEM_ATOM_DEF_STEREO_COUNT>
1

> <PUBCHEM_ATOM_UDEF_STEREO_COUNT>
0

> <PUBCHEM_BOND_DEF_STEREO_COUNT>
0

> <PUBCHEM_BOND_UDEF_STEREO_COUNT>
0

> <PUBCHEM_ISOTOPIC_ATOM_COUNT>
0

> <PUBCHEM_COMPONENT_COUNT>
1

> <PUBCHEM_CACTVS_TAUTO_COUNT>
3

> <PUBCHEM_CONFORMER_ID>
0006D63700000001

> <PUBCHEM_MMFF94_ENERGY>
68.2729

> <PUBCHEM_FEATURE_SELFOVERLAP>
35.527

> <PUBCHEM_SHAPE_FINGERPRINT>
10411042 1 17617942873117969651
10670039 82 18118980328450607652
11045515 52 17978782742853120615
11370993 70 18336826373122777817
11405975 8 18410854344175559090
12107183 9 18191011328055741746
12173636 292 18410009974626191590
12390115 104 18269292277617319728
12403260 363 18266167508700292342
12633257 1 18334846183373282144
12769317 202 18123455090802434181
12788726 201 18192419994828087306
13140716 1 18334576802692661442
13583140 156 16877936110012326185
138480 1 17185313141131889103
13965767 371 17968369036229310468
14123255 52 18337390426845669541
14142880 1 18261947544048644927
14787075 74 18272646836307439713
1741750 31 18342741784260870539
17834072 32 18410858746031825120
18186145 218 18055925285799830671
204376 136 18338802217177097337
20510252 161 18341053041985948162
20645477 56 18410019805600369710
21236236 1 18340768238182573671
21524375 3 18341894035173666559
22182937 141 18342182180092293217
23227448 37 18412263943287675853
23402539 116 18126279976665855999
23419403 2 17130696374591369643
23557571 272 18129676312386046574
23558518 356 18187933931800053874
23559900 14 18130229251451540006
283562 15 18265327490143310235
3004659 81 11671774945452271300
335352 9 18338234839687634462
350125 39 18267589185461003025
474 4 18340485547740706760
5048184 11 18410012104740176416
5104073 3 18334569183921221752
6333272 397 18338238137552364145
633830 44 17628082196303629221
7808743 9 18409729590787821976

> <PUBCHEM_SHAPE_MULTIPOLES>
389
9.45
3.75
0.83
5.72
1.33
-0.06
-7.67
-0.66
-2.64
0.3
-0.52
-0.08
-0.23

> <PUBCHEM_SHAPE_SELFOVERLAP>
826.885

> <PUBCHEM_SHAPE_VOLUME>
219.6

> <PUBCHEM_COORDINATE_TYPE>
2
5
10

$$$$
