439435
  -OEChem-08072615263D

 24 24  0     1  0  0  0  0  0999 V2000
    1.9898    1.5677    0.6954 O   0  0  0  0  0  0  0  0  0  0  0  0
   -3.1965    1.8962   -0.1892 O   0  0  0  0  0  0  0  0  0  0  0  0
   -4.2619   -0.5664    0.5344 O   0  0  0  0  0  0  0  0  0  0  0  0
    3.7588   -1.4513   -0.0874 O   0  0  0  0  0  0  0  0  0  0  0  0
    4.4404    0.7070    0.0858 O   0  0  0  0  0  0  0  0  0  0  0  0
    1.2005   -0.1288   -0.8131 C   0  0  0  0  0  0  0  0  0  0  0  0
   -0.2433   -0.2412   -0.4576 C   0  0  0  0  0  0  0  0  0  0  0  0
    2.0876    0.1789    0.4043 C   0  0  1  0  0  0  0  0  0  0  0  0
   -1.0591    0.8899   -0.4880 C   0  0  0  0  0  0  0  0  0  0  0  0
   -0.7781   -1.4773   -0.0942 C   0  0  0  0  0  0  0  0  0  0  0  0
   -2.4096    0.7849   -0.1550 C   0  0  0  0  0  0  0  0  0  0  0  0
   -2.1285   -1.5823    0.2389 C   0  0  0  0  0  0  0  0  0  0  0  0
   -2.9442   -0.4513    0.2084 C   0  0  0  0  0  0  0  0  0  0  0  0
    3.5441   -0.1259    0.1173 C   0  0  0  0  0  0  0  0  0  0  0  0
    1.3286    0.6500   -1.5773 H   0  0  0  0  0  0  0  0  0  0  0  0
    1.5150   -1.0632   -1.2955 H   0  0  0  0  0  0  0  0  0  0  0  0
    1.7825   -0.3816    1.2952 H   0  0  0  0  0  0  0  0  0  0  0  0
   -0.6490    1.8566   -0.7701 H   0  0  0  0  0  0  0  0  0  0  0  0
   -0.1524   -2.3654   -0.0643 H   0  0  0  0  0  0  0  0  0  0  0  0
   -2.5319   -2.5513    0.5206 H   0  0  0  0  0  0  0  0  0  0  0  0
    2.4720    1.7274    1.5247 H   0  0  0  0  0  0  0  0  0  0  0  0
   -4.0990    1.6401    0.0693 H   0  0  0  0  0  0  0  0  0  0  0  0
   -4.4529   -1.4936    0.7582 H   0  0  0  0  0  0  0  0  0  0  0  0
    4.7038   -1.6454   -0.2651 H   0  0  0  0  0  0  0  0  0  0  0  0
  1  8  1  0  0  0  0
  1 21  1  0  0  0  0
  2 11  1  0  0  0  0
  2 22  1  0  0  0  0
  3 13  1  0  0  0  0
  3 23  1  0  0  0  0
  4 14  1  0  0  0  0
  4 24  1  0  0  0  0
  5 14  2  0  0  0  0
  6  7  1  0  0  0  0
  6  8  1  0  0  0  0
  6 15  1  0  0  0  0
  6 16  1  0  0  0  0
  7  9  2  0  0  0  0
  7 10  1  0  0  0  0
  8 14  1  0  0  0  0
  8 17  1  0  0  0  0
  9 11  1  0  0  0  0
  9 18  1  0  0  0  0
 10 12  2  0  0  0  0
 10 19  1  0  0  0  0
 11 13  2  0  0  0  0
 12 13  1  0  0  0  0
 12 20  1  0  0  0  0
M  END
> <PUBCHEM_COMPOUND_CID>
439435

> <PUBCHEM_CONFORMER_RMSD>
0.6

> <PUBCHEM_CONFORMER_DIVERSEORDER>
4
8
20
23
28
16
17
5
27
1
12
29
24
3
14
19
6
18
26
2
7
15
9
22
11
13
25
10
21

> <PUBCHEM_MMFF94_PARTIAL_CHARGES>
21
1 -0.68
10 -0.15
11 0.08
12 -0.15
13 0.08
14 0.66
18 0.15
19 0.15
2 -0.53
20 0.15
21 0.4
22 0.45
23 0.45
24 0.5
3 -0.53
4 -0.65
5 -0.57
6 0.14
7 -0.14
8 0.34
9 -0.15

> <PUBCHEM_EFFECTIVE_ROTOR_COUNT>
3

> <PUBCHEM_PHARMACOPHORE_FEATURES>
8
1 1 acceptor
1 1 donor
1 2 donor
1 3 donor
1 4 acceptor
1 5 acceptor
3 4 5 14 anion
6 7 9 10 11 12 13 rings

> <PUBCHEM_HEAVY_ATOM_COUNT>
14

> <PUBCHEM_ATOM_DEF_STEREO_COUNT>
0

> <PUBCHEM_ATOM_UDEF_STEREO_COUNT>
1

> <PUBCHEM_BOND_DEF_STEREO_COUNT>
0

> <PUBCHEM_BOND_UDEF_STEREO_COUNT>
0

> <PUBCHEM_ISOTOPIC_ATOM_COUNT>
0

> <PUBCHEM_COMPONENT_COUNT>
1

> <PUBCHEM_CACTVS_TAUTO_COUNT>
18

> <PUBCHEM_CONFORMER_ID>
0006B48B00000004

> <PUBCHEM_MMFF94_ENERGY>
24.3823

> <PUBCHEM_FEATURE_SELFOVERLAP>
40.667

> <PUBCHEM_SHAPE_FINGERPRINT>
10608611 8 18341325660761193248
12119455 92 17632577132807630751
12251169 10 18410293652741562348
124424 183 18272928289444933804
12500047 106 18408315575414771942
12932764 1 17846210107417163454
13024252 1 13406788922468264927
13581323 91 18407760356386743630
14144814 61 18408882923678506898
14325111 11 18410009914412019236
15219456 202 18272092647438313198
15653759 3 18411135852968429264
15775835 57 18260829254591787392
16945 1 18335713775272768671
17804303 29 18409453552959665526
17834069 15 18410855447391057014
17834074 16 18408605846801386090
18186145 218 15769766966502442914
190213 19 17385443228305042958
19422 9 17894352168199466374
200 152 17632285796807437679
20361792 2 16081081614869969190
20510252 161 18412829058089165745
20528008 55 18411977005207269647
20645464 45 18201726149934538375
20645477 70 17417820500454302590
23402539 116 18412536639973576439
23559900 14 18341047407669207646
42 15 18334297560792729578
43471831 8 17968373451192304187
449060 50 18410291454230159156
5104073 3 18409165481044914834
6333449 129 18410571769497011229
69090 78 18201716280057877495
7364860 26 18118408573286487540
77779 3 18408324389199333710

> <PUBCHEM_SHAPE_MULTIPOLES>
258.77
7.45
1.6
0.74
3.77
0.07
-0.04
0.16
1.06
-0.63
0.06
0.03
0.03
0.44

> <PUBCHEM_SHAPE_SELFOVERLAP>
538.949

> <PUBCHEM_SHAPE_VOLUME>
146.7

> <PUBCHEM_COORDINATE_TYPE>
2
5
10

$$$$
