9877619
  -OEChem-08072615253D

 28 28  0     1  0  0  0  0  0999 V2000
    0.3615   -2.2255   -0.5261 O   0  0  0  0  0  0  0  0  0  0  0  0
    2.5754    0.5460   -0.1104 O   0  0  0  0  0  0  0  0  0  0  0  0
    2.9314   -1.7304   -0.0132 O   0  0  0  0  0  0  0  0  0  0  0  0
   -0.0888   -0.2542    0.7694 C   0  0  0  0  0  0  0  0  0  0  0  0
    0.6989   -0.8499   -0.3995 C   0  0  1  0  0  0  0  0  0  0  0  0
   -1.5122    0.0735    0.3861 C   0  0  0  0  0  0  0  0  0  0  0  0
    2.1913   -0.7641   -0.1444 C   0  0  0  0  0  0  0  0  0  0  0  0
   -1.8072    1.3297   -0.1188 C   0  0  0  0  0  0  0  0  0  0  0  0
   -2.4971   -0.8879    0.5463 C   0  0  0  0  0  0  0  0  0  0  0  0
   -3.1219    1.6325   -0.4730 C   0  0  0  0  0  0  0  0  0  0  0  0
   -3.8119   -0.5850    0.1923 C   0  0  0  0  0  0  0  0  0  0  0  0
   -4.1243    0.6752   -0.3174 C   0  0  0  0  0  0  0  0  0  0  0  0
    3.9726    0.7743    0.0986 C   0  0  0  0  0  0  0  0  0  0  0  0
    4.2322    2.2657    0.1102 C   0  0  0  0  0  0  0  0  0  0  0  0
   -0.0958   -0.9423    1.6255 H   0  0  0  0  0  0  0  0  0  0  0  0
    0.3850    0.6640    1.1399 H   0  0  0  0  0  0  0  0  0  0  0  0
    0.4834   -0.3615   -1.3559 H   0  0  0  0  0  0  0  0  0  0  0  0
   -1.0331    2.0810   -0.2459 H   0  0  0  0  0  0  0  0  0  0  0  0
   -2.2642   -1.8723    0.9420 H   0  0  0  0  0  0  0  0  0  0  0  0
   -3.3651    2.6135   -0.8705 H   0  0  0  0  0  0  0  0  0  0  0  0
   -4.5924   -1.3306    0.3132 H   0  0  0  0  0  0  0  0  0  0  0  0
    0.5234   -2.6595    0.3290 H   0  0  0  0  0  0  0  0  0  0  0  0
   -5.1480    0.9109   -0.5934 H   0  0  0  0  0  0  0  0  0  0  0  0
    4.2742    0.3387    1.0576 H   0  0  0  0  0  0  0  0  0  0  0  0
    4.5443    0.3054   -0.7101 H   0  0  0  0  0  0  0  0  0  0  0  0
    5.2935    2.4768    0.2687 H   0  0  0  0  0  0  0  0  0  0  0  0
    3.9189    2.7188   -0.8361 H   0  0  0  0  0  0  0  0  0  0  0  0
    3.6527    2.7514    0.9022 H   0  0  0  0  0  0  0  0  0  0  0  0
  1  5  1  0  0  0  0
  1 22  1  0  0  0  0
  2  7  1  0  0  0  0
  2 13  1  0  0  0  0
  3  7  2  0  0  0  0
  4  5  1  0  0  0  0
  4  6  1  0  0  0  0
  4 15  1  0  0  0  0
  4 16  1  0  0  0  0
  5  7  1  0  0  0  0
  5 17  1  0  0  0  0
  6  8  2  0  0  0  0
  6  9  1  0  0  0  0
  8 10  1  0  0  0  0
  8 18  1  0  0  0  0
  9 11  2  0  0  0  0
  9 19  1  0  0  0  0
 10 12  2  0  0  0  0
 10 20  1  0  0  0  0
 11 12  1  0  0  0  0
 11 21  1  0  0  0  0
 12 23  1  0  0  0  0
 13 14  1  0  0  0  0
 13 24  1  0  0  0  0
 13 25  1  0  0  0  0
 14 26  1  0  0  0  0
 14 27  1  0  0  0  0
 14 28  1  0  0  0  0
M  END
> <PUBCHEM_COMPOUND_CID>
9877619

> <PUBCHEM_CONFORMER_RMSD>
0.6

> <PUBCHEM_CONFORMER_DIVERSEORDER>
1
58
44
16
33
28
77
59
62
43
6
10
69
42
22
48
2
76
51
7
4
9
63
20
68
53
24
73
14
17
64
37
61
31
45
56
5
34
60
41
19
47
13
11
39
65
18
23
74
50
38
75
27
8
49
67
21
72
15
29
54
30
3
40
25
35
36
71
46
52
70
57
12
32
66
26
55

> <PUBCHEM_MMFF94_PARTIAL_CHARGES>
19
1 -0.68
10 -0.15
11 -0.15
12 -0.15
13 0.28
18 0.15
19 0.15
2 -0.43
20 0.15
21 0.15
22 0.4
23 0.15
3 -0.57
4 0.14
5 0.34
6 -0.14
7 0.66
8 -0.15
9 -0.15

> <PUBCHEM_EFFECTIVE_ROTOR_COUNT>
5

> <PUBCHEM_PHARMACOPHORE_FEATURES>
4
1 1 acceptor
1 1 donor
1 3 acceptor
6 6 8 9 10 11 12 rings

> <PUBCHEM_HEAVY_ATOM_COUNT>
14

> <PUBCHEM_ATOM_DEF_STEREO_COUNT>
1

> <PUBCHEM_ATOM_UDEF_STEREO_COUNT>
0

> <PUBCHEM_BOND_DEF_STEREO_COUNT>
0

> <PUBCHEM_BOND_UDEF_STEREO_COUNT>
0

> <PUBCHEM_ISOTOPIC_ATOM_COUNT>
0

> <PUBCHEM_COMPONENT_COUNT>
1

> <PUBCHEM_CACTVS_TAUTO_COUNT>
1

> <PUBCHEM_CONFORMER_ID>
0096B87300000001

> <PUBCHEM_MMFF94_ENERGY>
21.3335

> <PUBCHEM_FEATURE_SELFOVERLAP>
20.305

> <PUBCHEM_SHAPE_FINGERPRINT>
10608611 8 18336264531312980549
11132069 177 17967816041783189021
122479 349 18261675999363441296
13081056 2 18411422829967167980
13675066 3 11169908424603767982
14026960 21 18191031303231378864
14123255 52 18340203111287453128
14325111 11 18410013208472671587
14415576 193 18339925913544073660
14897335 6 18341611555575580670
15219456 202 18409451358241822699
15775835 57 18201720677824358918
17834072 32 18194405726356512308
18186145 218 18201169762517065354
20645477 56 18115029585302331629
20645477 70 18271526390360366246
20671657 53 17481998834616013694
21499 59 18343580758972417094
21524375 3 18342176708878853882
22096605 113 18411699872342229552
22926399 37 17988928893987455825
23227448 37 18054788657212837108
23402539 116 18041554840987811799
23557571 272 18188792616121465007
23559900 14 18266453205339912682
25610 137 18272374165723353905
351380 180 18334289873170522000
4921388 177 15267057116015081701
5104073 3 18334298626276818809
58051976 378 18272368672259514332
6333272 397 18409730703057263800
633830 44 17703244926530259093
7364860 26 18191865626409149298
9709674 26 18338521828906863879

> <PUBCHEM_SHAPE_MULTIPOLES>
270.51
8.42
2.04
0.73
2.96
0.13
0.04
3.91
-0.11
1.29
-0.24
-0.15
-0.03
0.57

> <PUBCHEM_SHAPE_SELFOVERLAP>
547.902

> <PUBCHEM_SHAPE_VOLUME>
157.7

> <PUBCHEM_COORDINATE_TYPE>
2
5
10

$$$$
