10176710_rep1_out.pdbqt
 OpenBabel09102615023D

 18 19  0  0  0  0  0  0  0  0999 V2000
  -51.1140   45.8360    3.1850 O   0  0  0  0  0  0  0  0  0  0  0  0
  -51.6410   46.4810    2.7530 H   0  0  0  0  0  0  0  0  0  0  0  0
  -51.3620   45.5170    4.4870 C   0  0  0  0  0  0  0  0  0  0  0  0
  -51.5600   46.5370    5.4170 C   0  0  0  0  0  0  0  0  0  0  0  0
  -51.8110   46.2090    6.7390 C   0  0  0  0  0  0  0  0  0  0  0  0
  -51.8680   44.8890    7.1570 C   0  0  0  0  0  0  0  0  0  0  0  0
  -51.6690   43.8690    6.2260 C   0  0  0  0  0  0  0  0  0  0  0  0
  -51.4160   44.1840    4.8910 C   0  0  0  0  0  0  0  0  0  0  0  0
  -52.0220   47.2860    7.7230 C   0  0  0  0  0  0  0  0  0  0  0  0
  -52.9770   47.2890    8.6830 C   0  0  0  0  0  0  0  0  0  0  0  0
  -53.1720   48.3440    9.6670 C   0  0  0  0  0  0  0  0  0  0  0  0
  -53.5120   49.6300    9.2520 C   0  0  0  0  0  0  0  0  0  0  0  0
  -53.7000   50.6410   10.1950 C   0  0  0  0  0  0  0  0  0  0  0  0
  -53.5480   50.3630   11.5540 C   0  0  0  0  0  0  0  0  0  0  0  0
  -53.2090   49.0750   11.9690 C   0  0  0  0  0  0  0  0  0  0  0  0
  -53.0210   48.0650   11.0260 C   0  0  0  0  0  0  0  0  0  0  0  0
  -51.2220   43.1790    3.9920 O   0  0  0  0  0  0  0  0  0  0  0  0
  -51.3680   42.2880    4.2460 H   0  0  0  0  0  0  0  0  0  0  0  0
  1  3  1  0  0  0  0
  2  1  1  0  0  0  0
  3  8  2  0  0  0  0
  3  4  1  0  0  0  0
  4  5  2  0  0  0  0
  5  6  1  0  0  0  0
  5  9  1  0  0  0  0
  7  6  2  0  0  0  0
  8  7  1  0  0  0  0
  9 10  2  0  0  0  0
 10 11  1  0  0  0  0
 11 16  1  0  0  0  0
 12 11  2  0  0  0  0
 12 13  1  0  0  0  0
 13 14  2  0  0  0  0
 14 15  1  0  0  0  0
 16 15  2  0  0  0  0
 17 18  1  0  0  0  0
 17  8  1  0  0  0  0
M  END
$$$$
