cAMP_rep1_out.pdbqt
 OpenBabel09102615043D

 25 28  0  0  1  0  0  0  0  0999 V2000
  -48.2760   39.5830    7.9710 P   0  0  2  0  0  0  0  0  0  0  0  0
  -50.8180   43.0430    8.4870 O   0  0  0  0  0  0  0  0  0  0  0  0
  -49.6720   39.9130    7.2000 O   0  0  0  0  0  0  0  0  0  0  0  0
  -48.2960   40.4840    9.3230 O   0  0  0  0  0  0  0  0  0  0  0  0
  -47.1370   40.2800    7.0540 O   0  0  0  0  0  0  0  0  0  0  0  0
  -48.0380   38.1200    8.2130 O   0  0  0  0  0  0  0  0  0  0  0  0
  -50.0640   41.2670    7.1960 C   0  0  2  0  0  0  0  0  0  0  0  0
  -50.1730   41.7780    8.6170 C   0  0  1  0  0  0  0  0  0  0  0  0
  -51.4450   41.5820    6.6680 C   0  0  2  0  0  0  0  0  0  0  0  0
  -51.7420   42.9200    7.3710 C   0  0  2  0  0  0  0  0  0  0  0  0
  -48.8070   41.8170    9.2710 C   0  0  0  0  0  0  0  0  0  0  0  0
  -52.3750   40.5980    7.1100 O   0  0  0  0  0  0  0  0  0  0  0  0
  -52.9920   40.9980    7.7430 H   0  0  0  0  0  0  0  0  0  0  0  0
  -51.6070   44.0840    6.4940 N   0  0  0  0  0  0  0  0  0  0  0  0
  -51.6350   45.3980    6.8670 C   0  0  0  0  0  0  0  0  0  0  0  0
  -51.7900   45.8940    8.1030 N   0  0  0  0  0  0  0  0  0  0  0  0
  -51.4680   46.1120    5.6910 C   0  0  0  0  0  0  0  0  0  0  0  0
  -51.7660   47.2450    8.0760 C   0  0  0  0  0  0  0  0  0  0  0  0
  -51.6120   48.0710    7.0130 N   0  0  0  0  0  0  0  0  0  0  0  0
  -51.4600   47.5000    5.7940 C   0  0  0  0  0  0  0  0  0  0  0  0
  -51.3400   45.2630    4.6210 N   0  0  0  0  0  0  0  0  0  0  0  0
  -51.4260   44.0540    5.1360 C   0  0  0  0  0  0  0  0  0  0  0  0
  -51.2980   48.3030    4.6520 N   0  0  0  0  0  0  0  0  0  0  0  0
  -51.7920   49.1510    4.5720 H   0  0  0  0  0  0  0  0  0  0  0  0
  -50.6900   48.0170    3.9320 H   0  0  0  0  0  0  0  0  0  0  0  0
  1  5  2  6  0  0  0
  1  6  1  0  0  0  0
  1  4  1  0  0  0  0
  2  8  1  0  0  0  0
  3  1  1  0  0  0  0
  7  3  1  1  0  0  0
  7  8  1  0  0  0  0
  8 11  1  6  0  0  0
  9 12  1  1  0  0  0
  9  7  1  0  0  0  0
  9 10  1  0  0  0  0
 10 14  1  6  0  0  0
 10  2  1  0  0  0  0
 11  4  1  0  0  0  0
 12 13  1  0  0  0  0
 14 15  1  0  0  0  0
 15 16  1  0  0  0  0
 17 20  1  0  0  0  0
 17 15  2  0  0  0  0
 18 16  2  0  0  0  0
 19 18  1  0  0  0  0
 20 19  2  0  0  0  0
 21 22  2  0  0  0  0
 21 17  1  0  0  0  0
 22 14  1  0  0  0  0
 23 20  1  0  0  0  0
 24 23  1  0  0  0  0
 25 23  1  0  0  0  0
M  END
$$$$