m5_rep1_out.pdbqt
 OpenBabel09102615033D

 25 26  0  0  1  0  0  0  0  0999 V2000
  -53.3890   49.9950   12.1610 C   0  0  0  0  0  0  0  0  0  0  0  0
  -53.7250   48.7020   11.8090 C   0  0  0  0  0  0  0  0  0  0  0  0
  -54.0500   48.4020   10.4980 C   0  0  0  0  0  0  0  0  0  0  0  0
  -54.0410   49.3950    9.5390 C   0  0  0  0  0  0  0  0  0  0  0  0
  -53.7040   50.6940    9.8900 C   0  0  0  0  0  0  0  0  0  0  0  0
  -53.3780   50.9920   11.2050 C   0  0  0  0  0  0  0  0  0  0  0  0
  -54.4160   46.9900   10.1170 C   0  0  0  0  0  0  0  0  0  0  0  0
  -54.0240   46.7370    8.6600 C   0  0  1  0  0  0  0  0  0  0  0  0
  -52.5560   46.3130    8.5930 C   0  0  0  0  0  0  0  0  0  0  0  0
  -52.1350   46.1870    7.1510 C   0  0  0  0  0  0  0  0  0  0  0  0
  -51.7110   47.3070    6.4520 C   0  0  0  0  0  0  0  0  0  0  0  0
  -51.3240   47.1910    5.1250 C   0  0  0  0  0  0  0  0  0  0  0  0
  -51.3610   45.9550    4.4980 C   0  0  0  0  0  0  0  0  0  0  0  0
  -51.7840   44.8350    5.1980 C   0  0  0  0  0  0  0  0  0  0  0  0
  -52.1660   44.9500    6.5250 C   0  0  0  0  0  0  0  0  0  0  0  0
  -51.6760   48.5180    7.0670 O   0  0  0  0  0  0  0  0  0  0  0  0
  -51.9790   49.2820    6.6160 H   0  0  0  0  0  0  0  0  0  0  0  0
  -50.9820   45.8410    3.1980 O   0  0  0  0  0  0  0  0  0  0  0  0
  -50.9010   44.9940    2.8070 H   0  0  0  0  0  0  0  0  0  0  0  0
  -52.5820   43.8520    7.2110 O   0  0  0  0  0  0  0  0  0  0  0  0
  -52.7440   43.0500    6.7550 H   0  0  0  0  0  0  0  0  0  0  0  0
  -54.8450   45.6990    8.1200 O   0  0  0  0  0  0  0  0  0  0  0  0
  -55.4950   45.4230    8.7850 H   0  0  0  0  0  0  0  0  0  0  0  0
  -53.6930   51.6730    8.9470 O   0  0  0  0  0  0  0  0  0  0  0  0
  -53.8440   51.4590    8.0470 H   0  0  0  0  0  0  0  0  0  0  0  0
  2  1  1  0  0  0  0
  3  2  2  0  0  0  0
  4  5  2  0  0  0  0
  4  3  1  0  0  0  0
  5  6  1  0  0  0  0
  6  1  2  0  0  0  0
  7  3  1  0  0  0  0
  8  9  1  1  0  0  0
  8  7  1  0  0  0  0
 10  9  1  0  0  0  0
 11 16  1  0  0  0  0
 11 10  2  0  0  0  0
 12 11  1  0  0  0  0
 13 12  2  0  0  0  0
 13 14  1  0  0  0  0
 14 15  2  0  0  0  0
 15 10  1  0  0  0  0
 15 20  1  0  0  0  0
 17 16  1  0  0  0  0
 18 13  1  0  0  0  0
 19 18  1  0  0  0  0
 21 20  1  0  0  0  0
 22  8  1  0  0  0  0
 22 23  1  0  0  0  0
 24  5  1  0  0  0  0
 25 24  1  0  0  0  0
M  END
$$$$