rolR_rep1_out.pdbqt
 OpenBabel09102615033D

 21 23  0  0  1  0  0  0  0  0999 V2000
  -51.6450   46.2920    7.3130 O   0  0  0  0  0  0  0  0  0  0  0  0
  -52.4290   46.6430    6.1790 C   0  0  0  0  0  0  0  0  0  0  0  0
  -53.1200   45.4010    5.6380 C   0  0  0  0  0  0  0  0  0  0  0  0
  -52.0430   44.6880    4.8240 C   0  0  0  0  0  0  0  0  0  0  0  0
  -51.0080   45.7510    4.4560 C   0  0  0  0  0  0  0  0  0  0  0  0
  -51.5330   47.0670    5.0260 C   0  0  0  0  0  0  0  0  0  0  0  0
  -52.0920   46.7270    8.5320 C   0  0  0  0  0  0  0  0  0  0  0  0
  -52.6620   47.9920    8.6340 C   0  0  0  0  0  0  0  0  0  0  0  0
  -53.1200   48.4470    9.8690 C   0  0  0  0  0  0  0  0  0  0  0  0
  -53.0070   47.6350   10.9980 C   0  0  0  0  0  0  0  0  0  0  0  0
  -52.4350   46.3670   10.8890 C   0  0  0  0  0  0  0  0  0  0  0  0
  -51.9760   45.9120    9.6530 C   0  0  0  0  0  0  0  0  0  0  0  0
  -53.7420   49.8220    9.9870 C   0  0  2  0  0  0  0  0  0  0  0  0
  -53.3750   50.8160    8.8830 C   0  0  0  0  0  0  0  0  0  0  0  0
  -53.6220   52.0980    9.4800 N   0  0  0  0  0  0  0  0  0  0  0  0
  -53.6320   52.0470   10.8680 C   0  0  0  0  0  0  0  0  0  0  0  0
  -53.7680   52.9220    8.9630 H   0  0  0  0  0  0  0  0  0  0  0  0
  -53.7720   52.9790   11.6440 O   0  0  0  0  0  0  0  0  0  0  0  0
  -53.3830   50.6120   11.2610 C   0  0  0  0  0  0  0  0  0  0  0  0
  -51.4180   44.6730    9.5600 O   0  0  0  0  0  0  0  0  0  0  0  0
  -52.0680   43.6160   10.2640 C   0  0  0  0  0  0  0  0  0  0  0  0
  1  7  1  0  0  0  0
  2  1  1  0  0  0  0
  3  2  1  0  0  0  0
  4  3  1  0  0  0  0
  5  4  1  0  0  0  0
  5  6  1  0  0  0  0
  6  2  1  0  0  0  0
  7  8  2  0  0  0  0
  7 12  1  0  0  0  0
  8  9  1  0  0  0  0
  9 10  2  0  0  0  0
 11 10  1  0  0  0  0
 12 11  2  0  0  0  0
 13  9  1  6  0  0  0
 13 19  1  0  0  0  0
 14 15  1  0  0  0  0
 14 13  1  0  0  0  0
 15 16  1  0  0  0  0
 16 19  1  0  0  0  0
 16 18  2  0  0  0  0
 17 15  1  0  0  0  0
 20 12  1  0  0  0  0
 20 21  1  0  0  0  0
M  END
$$$$
