# created with PyMOL 2.6.2
@<TRIPOS>MOLECULE
rol_3g45
26 29 1                 
SMALL
USER_CHARGES
@<TRIPOS>ATOM
1	  C1	31.686	78.466	23.133	C.2	1	ROL901	0.000	
2	  C2	31.598	77.547	22.110	C.2	1	ROL901	0.000	
3	  C3	31.502	78.040	20.723	C.2	1	ROL901	0.000	
4	  N4	31.482	79.376	20.474	N.2	1	ROL901	0.000	
5	  C5	31.564	80.249	21.495	C.2	1	ROL901	0.000	
6	  C6	31.666	79.823	22.823	C.2	1	ROL901	0.000	
7	 C13	31.596	76.179	22.338	C.2	1	ROL901	0.000	
8	 C15	31.526	75.253	21.281	C.2	1	ROL901	0.000	
9	 C17	31.443	75.667	19.951	C.2	1	ROL901	0.000	
10	 C19	31.442	77.023	19.648	C.2	1	ROL901	0.000	
11	 C22	31.332	77.496	18.275	C.2	1	ROL901	0.000	
12	 C24	30.276	77.042	17.533	C.2	1	ROL901	0.000	
13	 C25	30.120	77.472	16.233	C.2	1	ROL901	0.000	
14	 C26	31.005	78.378	15.676	C.2	1	ROL901	0.000	
15	 C27	32.063	78.843	16.439	C.2	1	ROL901	0.000	
16	 C28	32.228	78.401	17.746	C.2	1	ROL901	0.000	
17	 C35	31.518	73.781	21.616	C.3	1	ROL901	0.000	
18	 C37	32.761	73.080	21.149	C.2	1	ROL901	0.000	
19	 C39	33.954	73.226	21.855	C.2	1	ROL901	0.000	
20	 C40	35.088	72.567	21.394	C.2	1	ROL901	0.000	
21	 N41	35.038	71.791	20.301	N.2	1	ROL901	0.000	
22	 C42	33.894	71.610	19.629	C.2	1	ROL901	0.000	
23	 C43	32.723	72.251	20.032	C.2	1	ROL901	0.000	
24	 N50	29.051	76.981	15.496	N.2	1	ROL901	0.000	
25	 O52	28.579	75.874	15.748	O.2	1	ROL901	0.000	
26	 O54	28.532	77.785	14.477	O.2	1	ROL901	0.000	
@<TRIPOS>BOND
1 1 2 ar
2 1 6 ar
3 2 3 ar
4 2 7 ar
5 3 4 ar
6 3 10 ar
7 4 5 ar
8 5 6 ar
9 7 8 ar
10 8 9 ar
11 8 17 1
12 9 10 ar
13 10 11 1
14 11 12 ar
15 11 16 ar
16 12 13 ar
17 13 14 ar
18 13 24 1
19 14 15 ar
20 15 16 ar
21 17 18 1
22 18 19 ar
23 18 23 ar
24 19 20 ar
25 20 21 ar
26 21 22 ar
27 22 23 ar
28 24 25 ar
29 24 26 ar
@<TRIPOS>SUBSTRUCTURE
1	ROL901	1	GROUP	1 B	ROL
