# created with PyMOL 2.6.2
@<TRIPOS>MOLECULE
rol_4x0f_monomer
20 22 1                 
SMALL
USER_CHARGES
@<TRIPOS>ATOM
1	  C1	-52.440	46.260	9.320	C.2	1	ROL803	0.000	
2	  N1	-53.731	46.299	9.040	N.pl3	1	ROL803	0.000	
3	  O1	-51.885	45.361	9.943	O.2	1	ROL803	0.000	
4	  C2	-51.765	47.448	8.682	C.3	1	ROL803	0.000	
5	  O2	-54.959	52.237	11.845	O.3	1	ROL803	0.000	
6	  C3	-52.933	48.349	8.254	C.3	1	ROL803	0.000	
7	  O3	-53.453	50.305	12.789	O.3	1	ROL803	0.000	
8	  C4	-54.124	47.374	8.148	C.3	1	ROL803	0.000	
9	  C5	-53.330	49.476	9.188	C.2	1	ROL803	0.000	
10	  C6	-53.156	49.359	10.564	C.2	1	ROL803	0.000	
11	  C7	-53.665	50.316	11.430	C.2	1	ROL803	0.000	
12	  C8	-54.388	51.410	10.912	C.2	1	ROL803	0.000	
13	  C9	-54.529	51.548	9.537	C.2	1	ROL803	0.000	
14	 C10	-53.994	50.589	8.691	C.2	1	ROL803	0.000	
15	 C11	-52.729	49.213	13.428	C.3	1	ROL803	0.000	
16	 C12	-53.802	48.157	13.702	C.3	1	ROL803	0.000	
17	 C13	-53.964	48.088	15.179	C.3	1	ROL803	0.000	
18	 C14	-52.685	48.584	15.723	C.3	1	ROL803	0.000	
19	 C15	-52.196	49.648	14.775	C.3	1	ROL803	0.000	
20	 C16	-55.629	53.410	11.382	C.3	1	ROL803	0.000	
@<TRIPOS>BOND
1 1 2 1
2 1 3 2
3 2 8 1
4 1 4 1
5 5 20 1
6 4 6 1
7 6 8 1
8 7 15 1
9 6 9 1
10 9 10 ar
11 9 14 ar
12 10 11 ar
13 7 11 1
14 11 12 ar
15 5 12 1
16 12 13 ar
17 13 14 ar
18 15 16 1
19 15 19 1
20 16 17 1
21 17 18 1
22 18 19 1
@<TRIPOS>SUBSTRUCTURE
1	ROL803	1	GROUP	1 B	ROL
