# created with PyMOL 2.6.2
@<TRIPOS>MOLECULE
rol_4x0f
20 22 1                 
SMALL
USER_CHARGES
@<TRIPOS>ATOM
1	  C1	33.139	73.094	20.227	C.2	1	ROL803	0.000	
2	  N1	34.212	73.589	20.816	N.pl3	1	ROL803	0.000	
3	  O1	33.133	72.539	19.133	O.2	1	ROL803	0.000	
4	  C2	31.956	73.252	21.149	C.3	1	ROL803	0.000	
5	  O2	31.887	79.806	21.578	O.3	1	ROL803	0.000	
6	  C3	32.466	74.208	22.239	C.3	1	ROL803	0.000	
7	  O3	31.631	78.250	19.479	O.3	1	ROL803	0.000	
8	  C4	33.999	74.044	22.178	C.3	1	ROL803	0.000	
9	  C5	32.144	75.682	22.087	C.2	1	ROL803	0.000	
10	  C6	31.998	76.256	20.829	C.2	1	ROL803	0.000	
11	  C7	31.865	77.629	20.683	C.2	1	ROL803	0.000	
12	  C8	31.900	78.458	21.824	C.2	1	ROL803	0.000	
13	  C9	32.007	77.882	23.084	C.2	1	ROL803	0.000	
14	 C10	32.118	76.506	23.205	C.2	1	ROL803	0.000	
15	 C11	31.587	77.489	18.236	C.3	1	ROL803	0.000	
16	 C12	33.048	77.417	17.786	C.3	1	ROL803	0.000	
17	 C13	33.154	78.240	16.552	C.3	1	ROL803	0.000	
18	 C14	31.787	78.264	15.994	C.3	1	ROL803	0.000	
19	 C15	30.843	78.258	17.169	C.3	1	ROL803	0.000	
20	 C16	31.832	80.693	22.695	C.3	1	ROL803	0.000	
@<TRIPOS>BOND
1 1 2 1
2 1 3 2
3 2 8 1
4 1 4 1
5 5 20 1
6 4 6 1
7 6 8 1
8 7 15 1
9 6 9 1
10 9 10 ar
11 9 14 ar
12 10 11 ar
13 7 11 1
14 11 12 ar
15 5 12 1
16 12 13 ar
17 13 14 ar
18 15 16 1
19 15 19 1
20 16 17 1
21 17 18 1
22 18 19 1
@<TRIPOS>SUBSTRUCTURE
1	ROL803	1	GROUP	1 B	ROL
