# created with PyMOL 2.6.2
@<TRIPOS>MOLECULE
rol_1r06
82 86 1                 
SMALL
USER_CHARGES
@<TRIPOS>ATOM
1	  C1	-53.976	48.315	6.027	C.2	1	ROL601	0.000	
2	  C1	-52.441	47.104	9.425	C.2	1	ROL601	0.000	
3	  N1	-52.685	48.665	6.146	N.pl3	1	ROL601	0.000	
4	  N1	-51.579	47.924	8.787	N.pl3	1	ROL601	0.000	
5	  O1	-54.558	48.078	4.970	O.2	1	ROL601	0.000	
6	  O1	-52.153	46.189	10.197	O.2	1	ROL601	0.000	
7	  C2	-54.636	48.276	7.415	C.3	1	ROL601	0.000	
8	  C2	-53.876	47.483	9.044	C.3	1	ROL601	0.000	
9	  O2	-55.169	53.038	12.030	O.3	1	ROL601	0.000	
10	  O2	-55.181	53.167	12.008	O.3	1	ROL601	0.000	
11	  C3	-53.565	48.893	8.345	C.3	1	ROL601	0.000	
12	  C3	-53.713	48.890	8.425	C.3	1	ROL601	0.000	
13	  O3	-53.789	50.999	12.896	O.3	1	ROL601	0.000	
14	  O3	-53.883	51.075	12.964	O.3	1	ROL601	0.000	
15	  C4	-52.417	49.299	7.428	C.3	1	ROL601	0.000	
16	  C4	-52.248	48.943	7.995	C.3	1	ROL601	0.000	
17	  C5	-54.008	50.041	9.242	C.2	1	ROL601	0.000	
18	  C5	-54.050	50.063	9.329	C.2	1	ROL601	0.000	
19	  C6	-53.718	49.962	10.607	C.2	1	ROL601	0.000	
20	  C6	-53.699	50.065	10.682	C.2	1	ROL601	0.000	
21	  C7	-54.084	50.988	11.526	C.2	1	ROL601	0.000	
22	  C7	-54.114	51.084	11.581	C.2	1	ROL601	0.000	
23	  C8	-54.800	52.105	11.062	C.2	1	ROL601	0.000	
24	  C8	-54.820	52.191	11.079	C.2	1	ROL601	0.000	
25	  C9	-55.076	52.197	9.683	C.2	1	ROL601	0.000	
26	  C9	-55.108	52.227	9.701	C.2	1	ROL601	0.000	
27	 C10	-54.678	51.191	8.779	C.2	1	ROL601	0.000	
28	 C10	-54.736	51.183	8.833	C.2	1	ROL601	0.000	
29	 C11	-52.942	49.984	13.450	C.3	1	ROL601	0.000	
30	 C11	-53.121	50.008	13.549	C.3	1	ROL601	0.000	
31	 C12	-52.479	50.431	14.840	C.3	1	ROL601	0.000	
32	 C12	-52.798	50.347	15.000	C.3	1	ROL601	0.000	
33	 C13	-53.573	49.991	15.806	C.3	1	ROL601	0.000	
34	 C13	-54.060	49.984	15.776	C.3	1	ROL601	0.000	
35	 C14	-54.538	49.121	15.006	C.3	1	ROL601	0.000	
36	 C14	-54.745	48.885	14.987	C.3	1	ROL601	0.000	
37	 C15	-53.765	48.732	13.752	C.3	1	ROL601	0.000	
38	 C15	-53.940	48.719	13.700	C.3	1	ROL601	0.000	
39	 C16	-56.053	54.101	11.688	C.3	1	ROL601	0.000	
40	 C16	-55.840	54.354	11.576	C.3	1	ROL601	0.000	
41	  H1	-52.059	48.730	5.368	 H	1	ROL601	0.000	
42	  H1	-50.584	47.848	8.854	 H	1	ROL601	0.000	
43	 H21	-54.830	47.251	7.684	 H	1	ROL601	0.000	
44	 H21	-54.535	47.433	9.894	 H	1	ROL601	0.000	
45	 H22	-55.574	48.807	7.400	 H	1	ROL601	0.000	
46	 H22	-54.229	46.774	8.310	 H	1	ROL601	0.000	
47	 H31	-53.199	48.092	8.969	 H	1	ROL601	0.000	
48	 H31	-54.354	48.955	7.557	 H	1	ROL601	0.000	
49	 H41	-52.414	50.357	7.227	 H	1	ROL601	0.000	
50	 H41	-52.122	48.666	6.957	 H	1	ROL601	0.000	
51	 H42	-51.445	48.985	7.776	 H	1	ROL601	0.000	
52	 H42	-51.781	49.898	8.177	 H	1	ROL601	0.000	
53	 H61	-53.190	49.088	10.954	 H	1	ROL601	0.000	
54	 H61	-53.117	49.232	11.039	 H	1	ROL601	0.000	
55	 H91	-55.601	53.050	9.323	 H	1	ROL601	0.000	
56	 H91	-55.630	53.065	9.311	 H	1	ROL601	0.000	
57	H101	-54.903	51.303	7.731	 H	1	ROL601	0.000	
58	H101	-54.994	51.233	7.787	 H	1	ROL601	0.000	
59	H111	-52.068	49.803	12.839	 H	1	ROL601	0.000	
60	H111	-52.186	49.855	13.025	 H	1	ROL601	0.000	
61	H121	-51.555	49.932	15.093	 H	1	ROL601	0.000	
62	H121	-51.986	49.714	15.327	 H	1	ROL601	0.000	
63	H122	-52.310	51.495	14.892	 H	1	ROL601	0.000	
64	H122	-52.495	51.373	15.139	 H	1	ROL601	0.000	
65	H131	-53.143	49.431	16.621	 H	1	ROL601	0.000	
66	H131	-53.841	49.674	16.786	 H	1	ROL601	0.000	
67	H132	-54.095	50.839	16.226	 H	1	ROL601	0.000	
68	H132	-54.736	50.819	15.830	 H	1	ROL601	0.000	
69	H141	-54.878	48.260	15.564	 H	1	ROL601	0.000	
70	H141	-54.759	47.963	15.548	 H	1	ROL601	0.000	
71	H142	-55.404	49.704	14.735	 H	1	ROL601	0.000	
72	H142	-55.769	49.160	14.777	 H	1	ROL601	0.000	
73	H151	-54.422	48.422	12.955	 H	1	ROL601	0.000	
74	H151	-54.583	48.476	12.869	 H	1	ROL601	0.000	
75	H152	-53.101	47.907	13.968	 H	1	ROL601	0.000	
76	H152	-53.254	47.892	13.815	 H	1	ROL601	0.000	
77	H161	-56.293	54.675	12.571	 H	1	ROL601	0.000	
78	H161	-55.997	55.007	12.423	 H	1	ROL601	0.000	
79	H162	-55.594	54.763	10.968	 H	1	ROL601	0.000	
80	H162	-55.237	54.888	10.853	 H	1	ROL601	0.000	
81	H163	-56.979	53.718	11.284	 H	1	ROL601	0.000	
82	H163	-56.805	54.131	11.145	 H	1	ROL601	0.000	
@<TRIPOS>BOND
1 1 3 1
2 1 5 2
3 2 4 1
4 2 6 2
5 3 15 1
6 3 41 1
7 4 16 1
8 4 42 1
9 1 7 1
10 7 43 1
11 7 45 1
12 2 8 1
13 8 44 1
14 8 46 1
15 9 39 1
16 10 40 1
17 7 11 1
18 11 15 1
19 11 47 1
20 8 12 1
21 12 16 1
22 12 48 1
23 13 29 1
24 14 30 1
25 15 49 1
26 15 51 1
27 16 50 1
28 16 52 1
29 11 17 1
30 17 19 ar
31 17 27 ar
32 12 18 1
33 18 20 ar
34 18 28 ar
35 19 21 ar
36 19 53 1
37 20 22 ar
38 20 54 1
39 13 21 1
40 21 23 ar
41 14 22 1
42 22 24 ar
43 9 23 1
44 23 25 ar
45 10 24 1
46 24 26 ar
47 25 27 ar
48 25 55 1
49 26 28 ar
50 26 56 1
51 27 57 1
52 28 58 1
53 29 31 1
54 29 37 1
55 29 59 1
56 30 32 1
57 30 38 1
58 30 60 1
59 31 61 1
60 31 63 1
61 32 62 1
62 32 64 1
63 31 33 1
64 33 65 1
65 33 67 1
66 32 34 1
67 34 66 1
68 34 68 1
69 33 35 1
70 35 69 1
71 35 71 1
72 34 36 1
73 36 70 1
74 36 72 1
75 35 37 1
76 37 73 1
77 37 75 1
78 36 38 1
79 38 74 1
80 38 76 1
81 39 77 1
82 39 79 1
83 39 81 1
84 40 78 1
85 40 80 1
86 40 82 1
@<TRIPOS>SUBSTRUCTURE
1	ROL601	1	GROUP	1 A	ROL
