# created with PyMOL 2.6.2
@<TRIPOS>MOLECULE
rolR_rep1_out
21 23 1                 
SMALL
USER_CHARGES
@<TRIPOS>ATOM
1	   N	33.421	71.437	20.916	N.pl3	1	UNL1	-0.360	
2	   C	31.541	76.845	17.502	C.3	1	UNL1	0.129	
3	   C	31.887	78.155	16.810	C.3	1	UNL1	0.032	
4	   C	30.595	78.569	16.108	C.3	1	UNL1	0.002	
5	   C	29.772	77.293	15.936	C.3	1	UNL1	0.002	
6	   C	30.626	76.159	16.500	C.3	1	UNL1	0.032	
7	   C	31.433	76.709	19.874	C.2	1	UNL1	0.103	
8	   C	32.125	75.502	19.896	C.2	1	UNL1	0.047	
9	   C	32.731	75.074	21.076	C.2	1	UNL1	-0.049	
10	   C	32.644	75.855	22.228	C.2	1	UNL1	0.010	
11	   C	31.949	77.064	22.199	C.2	1	UNL1	0.040	
12	   C	31.341	77.492	21.019	C.2	1	UNL1	0.101	
13	   C	33.486	73.763	21.106	C.3	1	UNL1	0.045	
14	   C	32.858	72.613	20.317	C.3	1	UNL1	0.132	
15	   C	33.908	71.672	22.195	C.2	1	UNL1	0.218	
16	   C	33.672	73.130	22.499	C.3	1	UNL1	0.113	
17	   C	30.156	79.145	22.251	C.3	1	UNL1	0.210	
18	   O	30.839	77.117	18.708	O.3	1	UNL1	-0.343	
19	   O	34.400	70.859	22.963	O.2	1	UNL1	-0.274	
20	   O	30.664	78.674	21.004	O.3	1	UNL1	-0.353	
21	   H	33.458	70.560	20.470	 H	1	UNL1	0.162	
@<TRIPOS>BOND
1 1 15 1
2 1 21 1
3 2 3 1
4 2 6 1
5 3 4 1
6 4 5 1
7 5 6 1
8 7 8 ar
9 7 12 ar
10 8 9 ar
11 9 10 ar
12 9 13 1
13 10 11 ar
14 11 12 ar
15 12 20 1
16 13 14 1
17 13 16 1
18 1 14 1
19 15 16 1
20 15 19 2
21 2 18 1
22 7 18 1
23 17 20 1
@<TRIPOS>SUBSTRUCTURE
1	UNL1	1	GROUP	1 ****	UNL
