# created with PyMOL 2.6.2
@<TRIPOS>MOLECULE
rolR_rep1_out
21 23 1                 
SMALL
USER_CHARGES
@<TRIPOS>ATOM
1	   N	-49.920	45.867	13.416	N.pl3	1	UNL1	-0.360	
2	   C	-52.749	43.449	8.024	C.3	1	UNL1	0.129	
3	   C	-52.577	44.327	6.793	C.3	1	UNL1	0.032	
4	   C	-53.641	43.830	5.817	C.3	1	UNL1	0.002	
5	   C	-53.983	42.403	6.245	C.3	1	UNL1	0.002	
6	   C	-53.074	42.087	7.431	C.3	1	UNL1	0.032	
7	   C	-53.701	45.164	9.369	C.2	1	UNL1	0.103	
8	   C	-52.739	45.348	10.358	C.2	1	UNL1	0.047	
9	   C	-52.586	46.601	10.949	C.2	1	UNL1	-0.049	
10	   C	-53.395	47.665	10.550	C.2	1	UNL1	0.010	
11	   C	-54.357	47.474	9.557	C.2	1	UNL1	0.040	
12	   C	-54.511	46.220	8.966	C.2	1	UNL1	0.101	
13	   C	-51.542	46.807	12.024	C.3	1	UNL1	0.045	
14	   C	-50.421	45.768	12.074	C.3	1	UNL1	0.132	
15	   C	-50.835	46.448	14.285	C.2	1	UNL1	0.218	
16	   C	-52.062	46.787	13.475	C.3	1	UNL1	0.113	
17	   C	-56.809	45.921	8.432	C.3	1	UNL1	0.210	
18	   O	-53.843	43.927	8.797	O.3	1	UNL1	-0.343	
19	   O	-50.709	46.622	15.487	O.2	1	UNL1	-0.274	
20	   O	-55.455	46.046	8.000	O.3	1	UNL1	-0.353	
21	   H	-49.027	45.557	13.690	 H	1	UNL1	0.162	
@<TRIPOS>BOND
1 1 15 1
2 1 21 1
3 2 3 1
4 2 6 1
5 3 4 1
6 4 5 1
7 5 6 1
8 7 8 ar
9 7 12 ar
10 8 9 ar
11 9 10 ar
12 9 13 1
13 10 11 ar
14 11 12 ar
15 12 20 1
16 13 14 1
17 13 16 1
18 1 14 1
19 15 16 1
20 15 19 2
21 2 18 1
22 7 18 1
23 17 20 1
@<TRIPOS>SUBSTRUCTURE
1	UNL1	1	GROUP	1 ****	UNL
