# created with PyMOL 2.6.2
@<TRIPOS>MOLECULE
rolS_rep1_out
21 23 1                 
SMALL
USER_CHARGES
@<TRIPOS>ATOM
1	   N	-51.185	44.853	14.039	N.pl3	1	UNL1	-0.360	
2	   C	-52.343	46.713	8.432	C.3	1	UNL1	0.129	
3	   C	-51.000	47.051	7.801	C.3	1	UNL1	0.032	
4	   C	-51.330	47.364	6.342	C.3	1	UNL1	0.002	
5	   C	-52.665	46.680	6.049	C.3	1	UNL1	0.002	
6	   C	-53.056	45.945	7.329	C.3	1	UNL1	0.032	
7	   C	-53.061	48.308	10.042	C.2	1	UNL1	0.103	
8	   C	-52.714	47.390	11.029	C.2	1	UNL1	0.047	
9	   C	-52.731	47.777	12.369	C.2	1	UNL1	-0.049	
10	   C	-53.096	49.078	12.715	C.2	1	UNL1	0.010	
11	   C	-53.443	49.992	11.721	C.2	1	UNL1	0.040	
12	   C	-53.426	49.606	10.381	C.2	1	UNL1	0.101	
13	   C	-52.354	46.784	13.448	C.3	1	UNL1	0.045	
14	   C	-51.972	45.385	12.963	C.3	1	UNL1	0.132	
15	   C	-50.664	45.843	14.861	C.2	1	UNL1	0.218	
16	   C	-51.138	47.168	14.313	C.3	1	UNL1	0.113	
17	   C	-53.661	51.888	9.758	C.3	1	UNL1	0.210	
18	   O	-53.041	47.915	8.730	O.3	1	UNL1	-0.343	
19	   O	-49.924	45.698	15.820	O.2	1	UNL1	-0.274	
20	   O	-53.768	50.508	9.418	O.3	1	UNL1	-0.353	
21	   H	-51.032	43.890	14.180	 H	1	UNL1	0.162	
@<TRIPOS>BOND
1 1 15 1
2 1 21 1
3 2 3 1
4 2 6 1
5 3 4 1
6 4 5 1
7 5 6 1
8 7 8 ar
9 7 12 ar
10 8 9 ar
11 9 10 ar
12 9 13 1
13 10 11 ar
14 11 12 ar
15 12 20 1
16 13 14 1
17 13 16 1
18 1 14 1
19 15 16 1
20 15 19 2
21 2 18 1
22 7 18 1
23 17 20 1
@<TRIPOS>SUBSTRUCTURE
1	UNL1	1	GROUP	1 ****	UNL
