# created with PyMOL 2.6.2
@<TRIPOS>MOLECULE
rolR_rep1_out
21 23 1                 
SMALL
USER_CHARGES
@<TRIPOS>ATOM
1	   N	31.981	72.276	21.871	N.pl3	1	UNL1	-0.360	
2	   C	30.847	78.350	21.869	C.3	1	UNL1	0.129	
3	   C	30.201	79.557	22.532	C.3	1	UNL1	0.032	
4	   C	31.313	80.603	22.585	C.3	1	UNL1	0.002	
5	   C	32.630	79.835	22.497	C.3	1	UNL1	0.002	
6	   C	32.255	78.355	22.442	C.3	1	UNL1	0.032	
7	   C	31.077	77.433	19.686	C.2	1	UNL1	0.103	
8	   C	31.525	76.259	20.285	C.2	1	UNL1	0.047	
9	   C	31.727	75.120	19.508	C.2	1	UNL1	-0.049	
10	   C	31.479	75.158	18.136	C.2	1	UNL1	0.010	
11	   C	31.029	76.337	17.542	C.2	1	UNL1	0.040	
12	   C	30.828	77.478	18.319	C.2	1	UNL1	0.101	
13	   C	32.214	73.840	20.153	C.3	1	UNL1	0.045	
14	   C	31.183	73.081	20.990	C.3	1	UNL1	0.132	
15	   C	33.275	72.762	22.010	C.2	1	UNL1	0.218	
16	   C	33.381	73.994	21.147	C.3	1	UNL1	0.113	
17	   C	30.067	78.553	16.339	C.3	1	UNL1	0.210	
18	   O	30.884	78.546	20.461	O.3	1	UNL1	-0.343	
19	   O	34.162	72.317	22.722	O.2	1	UNL1	-0.274	
20	   O	30.390	78.624	17.727	O.3	1	UNL1	-0.353	
21	   H	31.649	71.470	22.326	 H	1	UNL1	0.162	
@<TRIPOS>BOND
1 1 15 1
2 1 21 1
3 2 3 1
4 2 6 1
5 3 4 1
6 4 5 1
7 5 6 1
8 7 8 ar
9 7 12 ar
10 8 9 ar
11 9 10 ar
12 9 13 1
13 10 11 ar
14 11 12 ar
15 12 20 1
16 13 14 1
17 13 16 1
18 1 14 1
19 15 16 1
20 15 19 2
21 2 18 1
22 7 18 1
23 17 20 1
@<TRIPOS>SUBSTRUCTURE
1	UNL1	1	GROUP	1 ****	UNL
