# created with PyMOL 2.6.2
@<TRIPOS>MOLECULE
rolS_rep1_out
21 23 1                 
SMALL
USER_CHARGES
@<TRIPOS>ATOM
1	   N	-53.562	50.443	9.521	N.pl3	1	UNL1	-0.360	
2	   C	-51.199	43.343	8.738	C.3	1	UNL1	0.129	
3	   C	-51.594	42.916	7.332	C.3	1	UNL1	0.032	
4	   C	-51.677	41.392	7.403	C.3	1	UNL1	0.002	
5	   C	-50.822	40.972	8.599	C.3	1	UNL1	0.002	
6	   C	-50.223	42.257	9.165	C.3	1	UNL1	0.032	
7	   C	-53.227	44.374	9.428	C.2	1	UNL1	0.103	
8	   C	-52.786	45.671	9.672	C.2	1	UNL1	0.047	
9	   C	-53.672	46.739	9.528	C.2	1	UNL1	-0.049	
10	   C	-54.992	46.506	9.143	C.2	1	UNL1	0.010	
11	   C	-55.427	45.203	8.901	C.2	1	UNL1	0.040	
12	   C	-54.543	44.133	9.045	C.2	1	UNL1	0.101	
13	   C	-53.199	48.153	9.789	C.3	1	UNL1	0.045	
14	   C	-53.677	49.211	8.793	C.3	1	UNL1	0.132	
15	   C	-53.536	50.251	10.895	C.2	1	UNL1	0.218	
16	   C	-53.629	48.764	11.137	C.3	1	UNL1	0.113	
17	   C	-56.354	42.708	8.464	C.3	1	UNL1	0.210	
18	   O	-52.349	43.332	9.574	O.3	1	UNL1	-0.343	
19	   O	-53.493	51.108	11.763	O.2	1	UNL1	-0.274	
20	   O	-54.979	42.865	8.807	O.3	1	UNL1	-0.353	
21	   H	-53.508	51.328	9.093	 H	1	UNL1	0.162	
@<TRIPOS>BOND
1 1 15 1
2 1 21 1
3 2 3 1
4 2 6 1
5 3 4 1
6 4 5 1
7 5 6 1
8 7 8 ar
9 7 12 ar
10 8 9 ar
11 9 10 ar
12 9 13 1
13 10 11 ar
14 11 12 ar
15 12 20 1
16 13 14 1
17 13 16 1
18 1 14 1
19 15 16 1
20 15 19 2
21 2 18 1
22 7 18 1
23 17 20 1
@<TRIPOS>SUBSTRUCTURE
1	UNL1	1	GROUP	1 ****	UNL
