# created with PyMOL 2.6.2
@<TRIPOS>MOLECULE
rolR_rep1_out
21 23 1                 
SMALL
USER_CHARGES
@<TRIPOS>ATOM
1	   N	33.984	72.101	22.060	N.pl3	1	UNL1	-0.360	
2	   C	31.833	77.324	17.458	C.3	1	UNL1	0.129	
3	   C	32.245	78.397	16.462	C.3	1	UNL1	0.032	
4	   C	30.926	78.925	15.901	C.3	1	UNL1	0.002	
5	   C	29.891	77.825	16.131	C.3	1	UNL1	0.002	
6	   C	30.643	76.664	16.778	C.3	1	UNL1	0.032	
7	   C	31.844	77.339	19.836	C.2	1	UNL1	0.103	
8	   C	32.162	75.985	19.825	C.2	1	UNL1	0.047	
9	   C	32.584	75.364	20.999	C.2	1	UNL1	-0.049	
10	   C	32.686	76.099	22.180	C.2	1	UNL1	0.010	
11	   C	32.367	77.457	22.185	C.2	1	UNL1	0.040	
12	   C	31.944	78.078	21.010	C.2	1	UNL1	0.101	
13	   C	32.931	73.891	20.993	C.3	1	UNL1	0.045	
14	   C	33.197	73.263	22.363	C.3	1	UNL1	0.132	
15	   C	34.603	72.184	20.820	C.2	1	UNL1	0.218	
16	   C	34.202	73.505	20.212	C.3	1	UNL1	0.113	
17	   C	31.829	80.099	22.259	C.3	1	UNL1	0.210	
18	   O	31.430	77.938	18.676	O.3	1	UNL1	-0.343	
19	   O	35.365	71.375	20.314	O.2	1	UNL1	-0.274	
20	   O	31.634	79.405	21.028	O.3	1	UNL1	-0.353	
21	   H	34.075	71.330	22.665	 H	1	UNL1	0.162	
@<TRIPOS>BOND
1 1 15 1
2 1 21 1
3 2 3 1
4 2 6 1
5 3 4 1
6 4 5 1
7 5 6 1
8 7 8 ar
9 7 12 ar
10 8 9 ar
11 9 10 ar
12 9 13 1
13 10 11 ar
14 11 12 ar
15 12 20 1
16 13 14 1
17 13 16 1
18 1 14 1
19 15 16 1
20 15 19 2
21 2 18 1
22 7 18 1
23 17 20 1
@<TRIPOS>SUBSTRUCTURE
1	UNL1	1	GROUP	1 ****	UNL
