# created with PyMOL 2.6.2
@<TRIPOS>MOLECULE
rolS_rep1_out
21 23 1                 
SMALL
USER_CHARGES
@<TRIPOS>ATOM
1	   N	-53.908	43.817	9.308	N.pl3	1	UNL1	-0.360	
2	   C	-52.780	48.309	13.964	C.3	1	UNL1	0.129	
3	   C	-52.239	49.000	15.207	C.3	1	UNL1	0.032	
4	   C	-50.839	48.418	15.392	C.3	1	UNL1	0.002	
5	   C	-50.831	47.080	14.653	C.3	1	UNL1	0.002	
6	   C	-52.241	46.893	14.098	C.3	1	UNL1	0.032	
7	   C	-52.979	48.833	11.654	C.2	1	UNL1	0.103	
8	   C	-53.067	47.600	11.014	C.2	1	UNL1	0.047	
9	   C	-53.812	47.483	9.840	C.2	1	UNL1	-0.049	
10	   C	-54.461	48.598	9.311	C.2	1	UNL1	0.010	
11	   C	-54.368	49.830	9.957	C.2	1	UNL1	0.040	
12	   C	-53.624	49.949	11.131	C.2	1	UNL1	0.101	
13	   C	-53.914	46.145	9.140	C.3	1	UNL1	0.045	
14	   C	-53.242	44.968	9.849	C.3	1	UNL1	0.132	
15	   C	-55.144	44.125	8.756	C.2	1	UNL1	0.218	
16	   C	-55.343	45.613	8.918	C.3	1	UNL1	0.113	
17	   C	-53.527	52.314	10.919	C.3	1	UNL1	0.210	
18	   O	-52.244	48.935	12.806	O.3	1	UNL1	-0.343	
19	   O	-55.952	43.353	8.267	O.2	1	UNL1	-0.274	
20	   O	-53.539	51.158	11.753	O.3	1	UNL1	-0.353	
21	   H	-53.530	42.908	9.326	 H	1	UNL1	0.162	
@<TRIPOS>BOND
1 1 15 1
2 1 21 1
3 2 3 1
4 2 6 1
5 3 4 1
6 4 5 1
7 5 6 1
8 7 8 ar
9 7 12 ar
10 8 9 ar
11 9 10 ar
12 9 13 1
13 10 11 ar
14 11 12 ar
15 12 20 1
16 13 14 1
17 13 16 1
18 1 14 1
19 15 16 1
20 15 19 2
21 2 18 1
22 7 18 1
23 17 20 1
@<TRIPOS>SUBSTRUCTURE
1	UNL1	1	GROUP	1 ****	UNL
