# created with PyMOL 2.6.2
@<TRIPOS>MOLECULE
rolS_rep1_out
21 23 1                 
SMALL
USER_CHARGES
@<TRIPOS>ATOM
1	   N	-50.056	46.286	15.228	N.pl3	1	UNL1	-0.360	
2	   C	-51.737	46.523	8.834	C.3	1	UNL1	0.129	
3	   C	-51.505	47.420	7.627	C.3	1	UNL1	0.032	
4	   C	-52.299	46.760	6.501	C.3	1	UNL1	0.002	
5	   C	-52.476	45.296	6.903	C.3	1	UNL1	0.002	
6	   C	-51.739	45.127	8.230	C.3	1	UNL1	0.032	
7	   C	-53.010	47.583	10.540	C.2	1	UNL1	0.103	
8	   C	-52.469	47.059	11.711	C.2	1	UNL1	0.047	
9	   C	-52.468	47.828	12.875	C.2	1	UNL1	-0.049	
10	   C	-53.007	49.115	12.863	C.2	1	UNL1	0.010	
11	   C	-53.548	49.632	11.687	C.2	1	UNL1	0.040	
12	   C	-53.549	48.865	10.521	C.2	1	UNL1	0.101	
13	   C	-51.880	47.266	14.152	C.3	1	UNL1	0.045	
14	   C	-50.757	46.243	13.975	C.3	1	UNL1	0.132	
15	   C	-50.286	47.461	15.929	C.2	1	UNL1	0.218	
16	   C	-51.233	48.294	15.099	C.3	1	UNL1	0.113	
17	   C	-53.331	50.396	8.716	C.3	1	UNL1	0.210	
18	   O	-53.006	46.817	9.404	O.3	1	UNL1	-0.343	
19	   O	-49.794	47.799	16.993	O.2	1	UNL1	-0.274	
20	   O	-54.081	49.381	9.378	O.3	1	UNL1	-0.353	
21	   H	-49.475	45.561	15.553	 H	1	UNL1	0.162	
@<TRIPOS>BOND
1 1 15 1
2 1 21 1
3 2 3 1
4 2 6 1
5 3 4 1
6 4 5 1
7 5 6 1
8 7 8 ar
9 7 12 ar
10 8 9 ar
11 9 10 ar
12 9 13 1
13 10 11 ar
14 11 12 ar
15 12 20 1
16 13 14 1
17 13 16 1
18 1 14 1
19 15 16 1
20 15 19 2
21 2 18 1
22 7 18 1
23 17 20 1
@<TRIPOS>SUBSTRUCTURE
1	UNL1	1	GROUP	1 ****	UNL
