# created with PyMOL 2.6.2
@<TRIPOS>MOLECULE
rolR_rep1_out
21 23 1                 
SMALL
USER_CHARGES
@<TRIPOS>ATOM
1	   N	32.006	71.925	23.119	N.pl3	1	UNL1	-0.360	
2	   C	31.718	77.040	17.727	C.3	1	UNL1	0.129	
3	   C	32.140	78.202	16.841	C.3	1	UNL1	0.032	
4	   C	30.860	78.616	16.118	C.3	1	UNL1	0.002	
5	   C	29.934	77.401	16.156	C.3	1	UNL1	0.002	
6	   C	30.716	76.294	16.860	C.3	1	UNL1	0.032	
7	   C	31.567	77.096	20.100	C.2	1	UNL1	0.103	
8	   C	31.725	75.729	20.302	C.2	1	UNL1	0.047	
9	   C	32.213	75.263	21.522	C.2	1	UNL1	-0.049	
10	   C	32.540	76.165	22.534	C.2	1	UNL1	0.010	
11	   C	32.380	77.535	22.324	C.2	1	UNL1	0.040	
12	   C	31.891	78.001	21.104	C.2	1	UNL1	0.101	
13	   C	32.388	73.776	21.749	C.3	1	UNL1	0.045	
14	   C	31.348	73.113	22.655	C.3	1	UNL1	0.132	
15	   C	33.389	72.005	23.013	C.2	1	UNL1	0.218	
16	   C	33.710	73.352	22.416	C.3	1	UNL1	0.113	
17	   C	31.871	80.179	22.059	C.3	1	UNL1	0.210	
18	   O	31.085	77.542	18.897	O.3	1	UNL1	-0.343	
19	   O	34.209	71.173	23.367	O.2	1	UNL1	-0.274	
20	   O	31.737	79.341	20.912	O.3	1	UNL1	-0.353	
21	   H	31.530	71.140	23.474	 H	1	UNL1	0.162	
@<TRIPOS>BOND
1 1 15 1
2 1 21 1
3 2 3 1
4 2 6 1
5 3 4 1
6 4 5 1
7 5 6 1
8 7 8 ar
9 7 12 ar
10 8 9 ar
11 9 10 ar
12 9 13 1
13 10 11 ar
14 11 12 ar
15 12 20 1
16 13 14 1
17 13 16 1
18 1 14 1
19 15 16 1
20 15 19 2
21 2 18 1
22 7 18 1
23 17 20 1
@<TRIPOS>SUBSTRUCTURE
1	UNL1	1	GROUP	1 ****	UNL
