# created with PyMOL 2.6.2
@<TRIPOS>MOLECULE
rolR_dimer
21 23 1                 
SMALL
USER_CHARGES
@<TRIPOS>ATOM
1	   N	-55.450	50.004	9.382	N.pl3	1	UNL1	0.000	
2	   C	-53.761	44.185	6.983	C.3	1	UNL1	0.000	
3	   C	-54.943	43.894	6.071	C.3	1	UNL1	0.000	
4	   C	-54.896	42.383	5.854	C.3	1	UNL1	0.000	
5	   C	-53.458	41.953	6.141	C.3	1	UNL1	0.000	
6	   C	-52.692	43.231	6.473	C.3	1	UNL1	0.000	
7	   C	-53.652	44.715	9.299	C.2	1	UNL1	0.000	
8	   C	-54.052	46.048	9.280	C.2	1	UNL1	0.000	
9	   C	-53.593	46.921	10.265	C.2	1	UNL1	0.000	
10	   C	-52.736	46.459	11.263	C.2	1	UNL1	0.000	
11	   C	-52.339	45.122	11.277	C.2	1	UNL1	0.000	
12	   C	-52.797	44.248	10.291	C.2	1	UNL1	0.000	
13	   C	-54.025	48.372	10.250	C.3	1	UNL1	0.000	
14	   C	-55.466	48.634	9.810	C.3	1	UNL1	0.000	
15	   C	-54.173	50.450	9.069	C.2	1	UNL1	0.000	
16	   C	-53.229	49.298	9.310	C.3	1	UNL1	0.000	
17	   C	-51.066	42.667	9.896	C.3	1	UNL1	0.000	
18	   O	-54.108	43.867	8.325	O.3	1	UNL1	0.000	
19	   O	-53.854	51.547	8.637	O.2	1	UNL1	0.000	
20	   O	-52.401	42.945	10.314	O.3	1	UNL1	0.000	
21	   H	-56.256	50.566	9.318	 H	1	UNL1	0.000	
@<TRIPOS>BOND
1 1 15 1
2 1 21 1
3 2 3 1
4 2 6 1
5 3 4 1
6 4 5 1
7 5 6 1
8 7 8 ar
9 7 12 ar
10 8 9 ar
11 9 10 ar
12 9 13 1
13 10 11 ar
14 11 12 ar
15 12 20 1
16 13 14 1
17 13 16 1
18 1 14 1
19 15 16 1
20 15 19 2
21 2 18 1
22 7 18 1
23 17 20 1
@<TRIPOS>SUBSTRUCTURE
1	UNL1	1	GROUP	1 ****	UNL
