# created with PyMOL 2.6.2
@<TRIPOS>MOLECULE
rolS_rep1_out
21 23 1                 
SMALL
USER_CHARGES
@<TRIPOS>ATOM
1	   N	-52.713	42.217	7.747	N.pl3	1	UNL1	-0.360	
2	   C	-51.659	46.546	13.198	C.3	1	UNL1	0.129	
3	   C	-52.533	46.408	14.436	C.3	1	UNL1	0.032	
4	   C	-52.130	47.584	15.324	C.3	1	UNL1	0.002	
5	   C	-50.730	48.000	14.872	C.3	1	UNL1	0.002	
6	   C	-50.333	47.026	13.766	C.3	1	UNL1	0.032	
7	   C	-52.866	47.079	11.220	C.2	1	UNL1	0.103	
8	   C	-52.760	45.736	10.872	C.2	1	UNL1	0.047	
9	   C	-53.417	45.263	9.736	C.2	1	UNL1	-0.049	
10	   C	-54.175	46.135	8.954	C.2	1	UNL1	0.010	
11	   C	-54.276	47.479	9.307	C.2	1	UNL1	0.040	
12	   C	-53.619	47.954	10.444	C.2	1	UNL1	0.101	
13	   C	-53.308	43.803	9.353	C.3	1	UNL1	0.045	
14	   C	-53.343	43.503	7.853	C.3	1	UNL1	0.132	
15	   C	-51.918	41.920	8.844	C.2	1	UNL1	0.218	
16	   C	-52.014	43.090	9.792	C.3	1	UNL1	0.113	
17	   C	-54.025	50.184	9.727	C.3	1	UNL1	0.210	
18	   O	-52.214	47.532	12.337	O.3	1	UNL1	-0.343	
19	   O	-51.227	40.928	9.013	O.2	1	UNL1	-0.274	
20	   O	-53.724	49.270	10.779	O.3	1	UNL1	-0.353	
21	   H	-52.832	41.612	6.979	 H	1	UNL1	0.162	
@<TRIPOS>BOND
1 1 15 1
2 1 21 1
3 2 3 1
4 2 6 1
5 3 4 1
6 4 5 1
7 5 6 1
8 7 8 ar
9 7 12 ar
10 8 9 ar
11 9 10 ar
12 9 13 1
13 10 11 ar
14 11 12 ar
15 12 20 1
16 13 14 1
17 13 16 1
18 1 14 1
19 15 16 1
20 15 19 2
21 2 18 1
22 7 18 1
23 17 20 1
@<TRIPOS>SUBSTRUCTURE
1	UNL1	1	GROUP	1 ****	UNL
