# created with PyMOL 2.6.2
@<TRIPOS>MOLECULE
rolS_rep2_out
21 23 1                 
SMALL
USER_CHARGES
@<TRIPOS>ATOM
1	   N	-53.580	50.450	9.527	N.pl3	1	UNL1	-0.360	
2	   C	-51.183	43.354	8.782	C.3	1	UNL1	0.129	
3	   C	-51.567	42.993	7.354	C.3	1	UNL1	0.032	
4	   C	-51.690	41.470	7.363	C.3	1	UNL1	0.002	
5	   C	-50.865	40.982	8.553	C.3	1	UNL1	0.002	
6	   C	-50.242	42.228	9.179	C.3	1	UNL1	0.032	
7	   C	-53.224	44.380	9.442	C.2	1	UNL1	0.103	
8	   C	-52.787	45.679	9.684	C.2	1	UNL1	0.047	
9	   C	-53.672	46.746	9.527	C.2	1	UNL1	-0.049	
10	   C	-54.988	46.509	9.131	C.2	1	UNL1	0.010	
11	   C	-55.420	45.205	8.891	C.2	1	UNL1	0.040	
12	   C	-54.536	44.137	9.047	C.2	1	UNL1	0.101	
13	   C	-53.204	48.161	9.787	C.3	1	UNL1	0.045	
14	   C	-53.696	49.219	8.798	C.3	1	UNL1	0.132	
15	   C	-53.539	50.255	10.901	C.2	1	UNL1	0.218	
16	   C	-53.623	48.767	11.140	C.3	1	UNL1	0.113	
17	   C	-56.362	42.694	8.565	C.3	1	UNL1	0.210	
18	   O	-52.346	43.340	9.600	O.3	1	UNL1	-0.343	
19	   O	-53.491	51.110	11.771	O.2	1	UNL1	-0.274	
20	   O	-54.969	42.867	8.811	O.3	1	UNL1	-0.353	
21	   H	-53.534	51.336	9.101	 H	1	UNL1	0.162	
@<TRIPOS>BOND
1 1 15 1
2 1 21 1
3 2 3 1
4 2 6 1
5 3 4 1
6 4 5 1
7 5 6 1
8 7 8 ar
9 7 12 ar
10 8 9 ar
11 9 10 ar
12 9 13 1
13 10 11 ar
14 11 12 ar
15 12 20 1
16 13 14 1
17 13 16 1
18 1 14 1
19 15 16 1
20 15 19 2
21 2 18 1
22 7 18 1
23 17 20 1
@<TRIPOS>SUBSTRUCTURE
1	UNL1	1	GROUP	1 ****	UNL
