# created with PyMOL 2.6.2
@<TRIPOS>MOLECULE
rolS_rep1_out
21 23 1                 
SMALL
USER_CHARGES
@<TRIPOS>ATOM
1	   N	-48.783	42.155	11.167	N.pl3	1	UNL1	-0.360	
2	   C	-54.109	47.017	9.624	C.3	1	UNL1	0.129	
3	   C	-55.427	47.649	9.200	C.3	1	UNL1	0.032	
4	   C	-55.074	49.105	8.898	C.3	1	UNL1	0.002	
5	   C	-53.782	49.399	9.659	C.3	1	UNL1	0.002	
6	   C	-53.440	48.123	10.425	C.3	1	UNL1	0.032	
7	   C	-52.878	45.423	8.360	C.2	1	UNL1	0.103	
8	   C	-51.675	45.083	8.970	C.2	1	UNL1	0.047	
9	   C	-51.192	43.778	8.867	C.2	1	UNL1	-0.049	
10	   C	-51.914	42.822	8.152	C.2	1	UNL1	0.010	
11	   C	-53.118	43.170	7.543	C.2	1	UNL1	0.040	
12	   C	-53.603	44.474	7.646	C.2	1	UNL1	0.101	
13	   C	-49.885	43.401	9.529	C.3	1	UNL1	0.045	
14	   C	-49.987	42.914	10.976	C.3	1	UNL1	0.132	
15	   C	-48.221	41.735	9.970	C.2	1	UNL1	0.218	
16	   C	-49.102	42.255	8.860	C.3	1	UNL1	0.113	
17	   C	-55.170	44.024	5.916	C.3	1	UNL1	0.210	
18	   O	-53.341	46.708	8.468	O.3	1	UNL1	-0.343	
19	   O	-47.231	41.038	9.819	O.2	1	UNL1	-0.274	
20	   O	-54.780	44.803	7.045	O.3	1	UNL1	-0.353	
21	   H	-48.399	41.954	12.051	 H	1	UNL1	0.162	
@<TRIPOS>BOND
1 1 15 1
2 1 21 1
3 2 3 1
4 2 6 1
5 3 4 1
6 4 5 1
7 5 6 1
8 7 8 ar
9 7 12 ar
10 8 9 ar
11 9 10 ar
12 9 13 1
13 10 11 ar
14 11 12 ar
15 12 20 1
16 13 14 1
17 13 16 1
18 1 14 1
19 15 16 1
20 15 19 2
21 2 18 1
22 7 18 1
23 17 20 1
@<TRIPOS>SUBSTRUCTURE
1	UNL1	1	GROUP	1 ****	UNL
