# created with PyMOL 2.6.2
@<TRIPOS>MOLECULE
rolS_rep1_out
21 23 1                 
SMALL
USER_CHARGES
@<TRIPOS>ATOM
1	   N	-54.528	44.791	7.629	N.pl3	1	UNL1	-0.360	
2	   C	-52.659	46.749	14.212	C.3	1	UNL1	0.129	
3	   C	-52.973	47.519	15.486	C.3	1	UNL1	0.032	
4	   C	-51.793	47.226	16.412	C.3	1	UNL1	0.002	
5	   C	-51.167	45.926	15.908	C.3	1	UNL1	0.002	
6	   C	-52.026	45.468	14.732	C.3	1	UNL1	0.032	
7	   C	-51.415	46.980	12.198	C.2	1	UNL1	0.103	
8	   C	-52.425	46.854	11.249	C.2	1	UNL1	0.047	
9	   C	-52.126	46.341	9.987	C.2	1	UNL1	-0.049	
10	   C	-50.820	45.955	9.681	C.2	1	UNL1	0.010	
11	   C	-49.814	46.083	10.637	C.2	1	UNL1	0.040	
12	   C	-50.111	46.597	11.900	C.2	1	UNL1	0.101	
13	   C	-53.218	46.202	8.949	C.3	1	UNL1	0.045	
14	   C	-53.181	44.925	8.107	C.3	1	UNL1	0.132	
15	   C	-55.441	45.498	8.400	C.2	1	UNL1	0.218	
16	   C	-54.660	46.186	9.493	C.3	1	UNL1	0.113	
17	   C	-48.396	45.534	13.156	C.3	1	UNL1	0.210	
18	   O	-51.722	47.484	13.435	O.3	1	UNL1	-0.343	
19	   O	-56.653	45.534	8.266	O.2	1	UNL1	-0.274	
20	   O	-49.120	46.717	12.827	O.3	1	UNL1	-0.353	
21	   H	-54.777	44.255	6.842	 H	1	UNL1	0.162	
@<TRIPOS>BOND
1 1 15 1
2 1 21 1
3 2 3 1
4 2 6 1
5 3 4 1
6 4 5 1
7 5 6 1
8 7 8 ar
9 7 12 ar
10 8 9 ar
11 9 10 ar
12 9 13 1
13 10 11 ar
14 11 12 ar
15 12 20 1
16 13 14 1
17 13 16 1
18 1 14 1
19 15 16 1
20 15 19 2
21 2 18 1
22 7 18 1
23 17 20 1
@<TRIPOS>SUBSTRUCTURE
1	UNL1	1	GROUP	1 ****	UNL
