# created with PyMOL 2.6.2
@<TRIPOS>MOLECULE
rolS_rep2_out
21 23 1                 
SMALL
USER_CHARGES
@<TRIPOS>ATOM
1	   N	-50.291	46.270	15.045	N.pl3	1	UNL1	-0.360	
2	   C	-52.155	46.202	8.949	C.3	1	UNL1	0.129	
3	   C	-51.173	46.968	8.074	C.3	1	UNL1	0.032	
4	   C	-51.762	46.878	6.667	C.3	1	UNL1	0.002	
5	   C	-52.686	45.660	6.667	C.3	1	UNL1	0.002	
6	   C	-52.576	45.043	8.059	C.3	1	UNL1	0.032	
7	   C	-53.197	47.789	10.381	C.2	1	UNL1	0.103	
8	   C	-52.691	47.213	11.543	C.2	1	UNL1	0.047	
9	   C	-52.610	47.973	12.711	C.2	1	UNL1	-0.049	
10	   C	-53.036	49.301	12.711	C.2	1	UNL1	0.010	
11	   C	-53.542	49.871	11.543	C.2	1	UNL1	0.040	
12	   C	-53.623	49.113	10.374	C.2	1	UNL1	0.101	
13	   C	-52.060	47.355	13.978	C.3	1	UNL1	0.045	
14	   C	-50.980	46.289	13.786	C.3	1	UNL1	0.132	
15	   C	-50.477	47.437	15.774	C.2	1	UNL1	0.218	
16	   C	-51.379	48.330	14.957	C.3	1	UNL1	0.113	
17	   C	-53.203	50.402	8.422	C.3	1	UNL1	0.210	
18	   O	-53.272	47.032	9.241	O.3	1	UNL1	-0.343	
19	   O	-49.981	47.726	16.851	O.2	1	UNL1	-0.274	
20	   O	-54.120	49.679	9.240	O.3	1	UNL1	-0.353	
21	   H	-49.744	45.513	15.358	 H	1	UNL1	0.162	
@<TRIPOS>BOND
1 1 15 1
2 1 21 1
3 2 3 1
4 2 6 1
5 3 4 1
6 4 5 1
7 5 6 1
8 7 8 ar
9 7 12 ar
10 8 9 ar
11 9 10 ar
12 9 13 1
13 10 11 ar
14 11 12 ar
15 12 20 1
16 13 14 1
17 13 16 1
18 1 14 1
19 15 16 1
20 15 19 2
21 2 18 1
22 7 18 1
23 17 20 1
@<TRIPOS>SUBSTRUCTURE
1	UNL1	1	GROUP	1 ****	UNL
