# created with PyMOL 2.6.2
@<TRIPOS>MOLECULE
rolS_rep2_out
21 23 1                 
SMALL
USER_CHARGES
@<TRIPOS>ATOM
1	   N	-51.192	44.828	14.020	N.pl3	1	UNL1	-0.360	
2	   C	-52.351	46.716	8.421	C.3	1	UNL1	0.129	
3	   C	-51.011	47.053	7.782	C.3	1	UNL1	0.032	
4	   C	-51.350	47.369	6.326	C.3	1	UNL1	0.002	
5	   C	-52.688	46.689	6.040	C.3	1	UNL1	0.002	
6	   C	-53.073	45.953	7.321	C.3	1	UNL1	0.032	
7	   C	-53.059	48.307	10.040	C.2	1	UNL1	0.103	
8	   C	-52.716	47.383	11.022	C.2	1	UNL1	0.047	
9	   C	-52.729	47.764	12.364	C.2	1	UNL1	-0.049	
10	   C	-53.086	49.066	12.716	C.2	1	UNL1	0.010	
11	   C	-53.430	49.986	11.727	C.2	1	UNL1	0.040	
12	   C	-53.417	49.606	10.384	C.2	1	UNL1	0.101	
13	   C	-52.356	46.765	13.437	C.3	1	UNL1	0.045	
14	   C	-51.976	45.368	12.945	C.3	1	UNL1	0.132	
15	   C	-50.670	45.812	14.847	C.2	1	UNL1	0.218	
16	   C	-51.140	47.141	14.307	C.3	1	UNL1	0.113	
17	   C	-53.654	51.892	9.776	C.3	1	UNL1	0.210	
18	   O	-53.044	47.920	8.725	O.3	1	UNL1	-0.343	
19	   O	-49.932	45.660	15.807	O.2	1	UNL1	-0.274	
20	   O	-53.755	50.514	9.427	O.3	1	UNL1	-0.353	
21	   H	-51.041	43.864	14.156	 H	1	UNL1	0.162	
@<TRIPOS>BOND
1 1 15 1
2 1 21 1
3 2 3 1
4 2 6 1
5 3 4 1
6 4 5 1
7 5 6 1
8 7 8 ar
9 7 12 ar
10 8 9 ar
11 9 10 ar
12 9 13 1
13 10 11 ar
14 11 12 ar
15 12 20 1
16 13 14 1
17 13 16 1
18 1 14 1
19 15 16 1
20 15 19 2
21 2 18 1
22 7 18 1
23 17 20 1
@<TRIPOS>SUBSTRUCTURE
1	UNL1	1	GROUP	1 ****	UNL
