# created with PyMOL 2.6.2
@<TRIPOS>MOLECULE
rolS_rep2_out
21 23 1                 
SMALL
USER_CHARGES
@<TRIPOS>ATOM
1	   N	-51.698	47.784	14.537	N.pl3	1	UNL1	-0.360	
2	   C	-51.487	44.054	8.517	C.3	1	UNL1	0.129	
3	   C	-51.503	43.082	7.347	C.3	1	UNL1	0.032	
4	   C	-52.080	41.792	7.928	C.3	1	UNL1	0.002	
5	   C	-51.851	41.863	9.438	C.3	1	UNL1	0.002	
6	   C	-51.104	43.170	9.693	C.3	1	UNL1	0.032	
7	   C	-52.870	45.868	9.189	C.2	1	UNL1	0.103	
8	   C	-52.865	46.071	10.566	C.2	1	UNL1	0.047	
9	   C	-52.946	47.368	11.072	C.2	1	UNL1	-0.049	
10	   C	-53.033	48.454	10.201	C.2	1	UNL1	0.010	
11	   C	-53.039	48.243	8.823	C.2	1	UNL1	0.040	
12	   C	-52.958	46.946	8.315	C.2	1	UNL1	0.101	
13	   C	-52.939	47.598	12.568	C.3	1	UNL1	0.045	
14	   C	-51.747	47.012	13.327	C.3	1	UNL1	0.132	
15	   C	-52.355	49.001	14.420	C.2	1	UNL1	0.218	
16	   C	-52.913	49.071	13.019	C.3	1	UNL1	0.113	
17	   C	-51.739	46.971	6.274	C.3	1	UNL1	0.210	
18	   O	-52.792	44.589	8.704	O.3	1	UNL1	-0.343	
19	   O	-52.440	49.882	15.260	O.2	1	UNL1	-0.274	
20	   O	-52.966	46.752	6.967	O.3	1	UNL1	-0.353	
21	   H	-51.248	47.484	15.359	 H	1	UNL1	0.162	
@<TRIPOS>BOND
1 1 15 1
2 1 21 1
3 2 3 1
4 2 6 1
5 3 4 1
6 4 5 1
7 5 6 1
8 7 8 ar
9 7 12 ar
10 8 9 ar
11 9 10 ar
12 9 13 1
13 10 11 ar
14 11 12 ar
15 12 20 1
16 13 14 1
17 13 16 1
18 1 14 1
19 15 16 1
20 15 19 2
21 2 18 1
22 7 18 1
23 17 20 1
@<TRIPOS>SUBSTRUCTURE
1	UNL1	1	GROUP	1 ****	UNL
