# created with PyMOL 2.6.2
@<TRIPOS>MOLECULE
rolS_rep3_out
21 23 1                 
SMALL
USER_CHARGES
@<TRIPOS>ATOM
1	   N	-52.733	42.204	7.766	N.pl3	1	UNL1	-0.360	
2	   C	-51.640	46.552	13.204	C.3	1	UNL1	0.129	
3	   C	-52.538	46.423	14.426	C.3	1	UNL1	0.032	
4	   C	-52.141	47.597	15.319	C.3	1	UNL1	0.002	
5	   C	-50.729	48.000	14.893	C.3	1	UNL1	0.002	
6	   C	-50.320	47.020	13.796	C.3	1	UNL1	0.032	
7	   C	-52.819	47.091	11.211	C.2	1	UNL1	0.103	
8	   C	-52.733	45.744	10.874	C.2	1	UNL1	0.047	
9	   C	-53.388	45.274	9.735	C.2	1	UNL1	-0.049	
10	   C	-54.124	46.153	8.940	C.2	1	UNL1	0.010	
11	   C	-54.205	47.501	9.284	C.2	1	UNL1	0.040	
12	   C	-53.551	47.973	10.423	C.2	1	UNL1	0.101	
13	   C	-53.300	43.809	9.362	C.3	1	UNL1	0.045	
14	   C	-53.346	43.499	7.866	C.3	1	UNL1	0.132	
15	   C	-51.937	41.904	8.863	C.2	1	UNL1	0.218	
16	   C	-52.014	43.083	9.802	C.3	1	UNL1	0.113	
17	   C	-54.320	50.142	9.830	C.3	1	UNL1	0.210	
18	   O	-52.170	47.541	12.331	O.3	1	UNL1	-0.343	
19	   O	-51.258	40.905	9.036	O.2	1	UNL1	-0.274	
20	   O	-53.637	49.293	10.748	O.3	1	UNL1	-0.353	
21	   H	-52.863	41.595	7.004	 H	1	UNL1	0.162	
@<TRIPOS>BOND
1 1 15 1
2 1 21 1
3 2 3 1
4 2 6 1
5 3 4 1
6 4 5 1
7 5 6 1
8 7 8 ar
9 7 12 ar
10 8 9 ar
11 9 10 ar
12 9 13 1
13 10 11 ar
14 11 12 ar
15 12 20 1
16 13 14 1
17 13 16 1
18 1 14 1
19 15 16 1
20 15 19 2
21 2 18 1
22 7 18 1
23 17 20 1
@<TRIPOS>SUBSTRUCTURE
1	UNL1	1	GROUP	1 ****	UNL
