# created with PyMOL 2.6.2
@<TRIPOS>MOLECULE
rolS_rep1_out
21 23 1                 
SMALL
USER_CHARGES
@<TRIPOS>ATOM
1	   N	-51.097	42.981	13.222	N.pl3	1	UNL1	-0.360	
2	   C	-54.386	46.834	9.633	C.3	1	UNL1	0.129	
3	   C	-55.626	47.611	9.219	C.3	1	UNL1	0.032	
4	   C	-55.095	48.976	8.782	C.3	1	UNL1	0.002	
5	   C	-53.735	49.142	9.458	C.3	1	UNL1	0.002	
6	   C	-53.528	47.892	10.310	C.3	1	UNL1	0.032	
7	   C	-53.317	45.029	8.513	C.2	1	UNL1	0.103	
8	   C	-52.681	44.556	9.657	C.2	1	UNL1	0.047	
9	   C	-52.252	43.230	9.710	C.2	1	UNL1	-0.049	
10	   C	-52.459	42.385	8.619	C.2	1	UNL1	0.010	
11	   C	-53.095	42.866	7.476	C.2	1	UNL1	0.040	
12	   C	-53.525	44.192	7.422	C.2	1	UNL1	0.101	
13	   C	-51.562	42.707	10.951	C.3	1	UNL1	0.045	
14	   C	-51.225	43.751	12.017	C.3	1	UNL1	0.132	
15	   C	-51.738	41.753	13.142	C.2	1	UNL1	0.218	
16	   C	-52.349	41.661	11.765	C.3	1	UNL1	0.113	
17	   C	-55.460	44.165	6.041	C.3	1	UNL1	0.210	
18	   O	-53.732	46.334	8.473	O.3	1	UNL1	-0.343	
19	   O	-51.840	40.911	14.019	O.2	1	UNL1	-0.274	
20	   O	-54.145	44.652	6.300	O.3	1	UNL1	-0.353	
21	   H	-50.608	43.291	14.019	 H	1	UNL1	0.162	
@<TRIPOS>BOND
1 1 15 1
2 1 21 1
3 2 3 1
4 2 6 1
5 3 4 1
6 4 5 1
7 5 6 1
8 7 8 ar
9 7 12 ar
10 8 9 ar
11 9 10 ar
12 9 13 1
13 10 11 ar
14 11 12 ar
15 12 20 1
16 13 14 1
17 13 16 1
18 1 14 1
19 15 16 1
20 15 19 2
21 2 18 1
22 7 18 1
23 17 20 1
@<TRIPOS>SUBSTRUCTURE
1	UNL1	1	GROUP	1 ****	UNL
