# created with PyMOL 2.6.2
@<TRIPOS>MOLECULE
rolS_rep1_out
21 23 1                 
SMALL
USER_CHARGES
@<TRIPOS>ATOM
1	   N	-47.673	43.204	9.375	N.pl3	1	UNL1	-0.360	
2	   C	-54.335	47.145	9.637	C.3	1	UNL1	0.129	
3	   C	-55.594	47.887	9.212	C.3	1	UNL1	0.032	
4	   C	-55.120	49.311	8.924	C.3	1	UNL1	0.002	
5	   C	-53.813	49.491	9.694	C.3	1	UNL1	0.002	
6	   C	-53.581	48.185	10.450	C.3	1	UNL1	0.032	
7	   C	-53.062	45.518	8.458	C.2	1	UNL1	0.103	
8	   C	-51.821	45.290	9.043	C.2	1	UNL1	0.047	
9	   C	-51.274	44.007	9.025	C.2	1	UNL1	-0.049	
10	   C	-51.970	42.960	8.421	C.2	1	UNL1	0.010	
11	   C	-53.213	43.196	7.835	C.2	1	UNL1	0.040	
12	   C	-53.762	44.479	7.854	C.2	1	UNL1	0.101	
13	   C	-49.924	43.751	9.660	C.3	1	UNL1	0.045	
14	   C	-48.970	42.860	8.863	C.3	1	UNL1	0.132	
15	   C	-47.657	44.445	9.997	C.2	1	UNL1	0.218	
16	   C	-49.059	44.999	9.919	C.3	1	UNL1	0.113	
17	   C	-55.226	44.057	6.029	C.3	1	UNL1	0.210	
18	   O	-53.588	46.783	8.482	O.3	1	UNL1	-0.343	
19	   O	-46.695	45.019	10.481	O.2	1	UNL1	-0.274	
20	   O	-54.977	44.697	7.278	O.3	1	UNL1	-0.353	
21	   H	-46.882	42.624	9.293	 H	1	UNL1	0.162	
@<TRIPOS>BOND
1 1 15 1
2 1 21 1
3 2 3 1
4 2 6 1
5 3 4 1
6 4 5 1
7 5 6 1
8 7 8 ar
9 7 12 ar
10 8 9 ar
11 9 10 ar
12 9 13 1
13 10 11 ar
14 11 12 ar
15 12 20 1
16 13 14 1
17 13 16 1
18 1 14 1
19 15 16 1
20 15 19 2
21 2 18 1
22 7 18 1
23 17 20 1
@<TRIPOS>SUBSTRUCTURE
1	UNL1	1	GROUP	1 ****	UNL
