# created with PyMOL 2.6.2
@<TRIPOS>MOLECULE
rolS_rep1_out
21 23 1                 
SMALL
USER_CHARGES
@<TRIPOS>ATOM
1	   N	-55.558	50.194	9.369	N.pl3	1	UNL1	-0.360	
2	   C	-52.701	43.097	7.722	C.3	1	UNL1	0.129	
3	   C	-52.688	44.126	6.601	C.3	1	UNL1	0.032	
4	   C	-53.837	43.710	5.685	C.3	1	UNL1	0.002	
5	   C	-54.090	42.228	5.963	C.3	1	UNL1	0.002	
6	   C	-53.051	41.806	6.999	C.3	1	UNL1	0.032	
7	   C	-53.527	44.571	9.395	C.2	1	UNL1	0.103	
8	   C	-53.964	45.789	8.884	C.2	1	UNL1	0.047	
9	   C	-53.775	46.956	9.624	C.2	1	UNL1	-0.049	
10	   C	-53.149	46.900	10.870	C.2	1	UNL1	0.010	
11	   C	-52.714	45.676	11.376	C.2	1	UNL1	0.040	
12	   C	-52.903	44.507	10.636	C.2	1	UNL1	0.101	
13	   C	-54.249	48.285	9.076	C.3	1	UNL1	0.045	
14	   C	-55.601	48.777	9.594	C.3	1	UNL1	0.132	
15	   C	-54.264	50.675	9.234	C.2	1	UNL1	0.218	
16	   C	-53.335	49.492	9.365	C.3	1	UNL1	0.113	
17	   C	-51.065	43.084	11.136	C.3	1	UNL1	0.210	
18	   O	-53.718	43.432	8.658	O.3	1	UNL1	-0.343	
19	   O	-53.915	51.835	9.083	O.2	1	UNL1	-0.274	
20	   O	-52.472	43.317	11.140	O.3	1	UNL1	-0.353	
21	   H	-56.360	50.763	9.317	 H	1	UNL1	0.162	
@<TRIPOS>BOND
1 1 15 1
2 1 21 1
3 2 3 1
4 2 6 1
5 3 4 1
6 4 5 1
7 5 6 1
8 7 8 ar
9 7 12 ar
10 8 9 ar
11 9 10 ar
12 9 13 1
13 10 11 ar
14 11 12 ar
15 12 20 1
16 13 14 1
17 13 16 1
18 1 14 1
19 15 16 1
20 15 19 2
21 2 18 1
22 7 18 1
23 17 20 1
@<TRIPOS>SUBSTRUCTURE
1	UNL1	1	GROUP	1 ****	UNL
