# created with PyMOL 2.6.2
@<TRIPOS>MOLECULE
rolS_rep1_out
21 23 1                 
SMALL
USER_CHARGES
@<TRIPOS>ATOM
1	   N	33.826	71.475	21.623	N.pl3	1	UNL1	-0.360	
2	   C	31.603	76.519	17.721	C.3	1	UNL1	0.129	
3	   C	31.946	77.888	17.153	C.3	1	UNL1	0.032	
4	   C	30.676	78.332	16.428	C.3	1	UNL1	0.002	
5	   C	29.893	77.057	16.119	C.3	1	UNL1	0.002	
6	   C	30.747	75.898	16.628	C.3	1	UNL1	0.032	
7	   C	31.499	76.460	20.096	C.2	1	UNL1	0.103	
8	   C	32.255	75.301	20.246	C.2	1	UNL1	0.047	
9	   C	32.926	75.065	21.446	C.2	1	UNL1	-0.049	
10	   C	32.836	75.987	22.489	C.2	1	UNL1	0.010	
11	   C	32.077	77.145	22.332	C.2	1	UNL1	0.040	
12	   C	31.405	77.383	21.132	C.2	1	UNL1	0.101	
13	   C	33.751	73.808	21.617	C.3	1	UNL1	0.045	
14	   C	32.980	72.557	22.042	C.3	1	UNL1	0.132	
15	   C	34.725	71.852	20.635	C.2	1	UNL1	0.218	
16	   C	34.490	73.317	20.357	C.3	1	UNL1	0.113	
17	   C	30.158	79.113	22.182	C.3	1	UNL1	0.210	
18	   O	30.844	76.680	18.913	O.3	1	UNL1	-0.343	
19	   O	35.531	71.142	20.056	O.2	1	UNL1	-0.274	
20	   O	30.666	78.518	20.990	O.3	1	UNL1	-0.353	
21	   H	33.774	70.565	21.995	 H	1	UNL1	0.162	
@<TRIPOS>BOND
1 1 15 1
2 1 21 1
3 2 3 1
4 2 6 1
5 3 4 1
6 4 5 1
7 5 6 1
8 7 8 ar
9 7 12 ar
10 8 9 ar
11 9 10 ar
12 9 13 1
13 10 11 ar
14 11 12 ar
15 12 20 1
16 13 14 1
17 13 16 1
18 1 14 1
19 15 16 1
20 15 19 2
21 2 18 1
22 7 18 1
23 17 20 1
@<TRIPOS>SUBSTRUCTURE
1	UNL1	1	GROUP	1 ****	UNL
