# created with PyMOL 2.6.2
@<TRIPOS>MOLECULE
rolS_rep1_out
21 23 1                 
SMALL
USER_CHARGES
@<TRIPOS>ATOM
1	   N	-53.395	43.015	7.099	N.pl3	1	UNL1	-0.360	
2	   C	-53.423	48.632	9.461	C.3	1	UNL1	0.129	
3	   C	-53.496	50.146	9.327	C.3	1	UNL1	0.032	
4	   C	-54.900	50.506	9.813	C.3	1	UNL1	0.002	
5	   C	-55.740	49.238	9.669	C.3	1	UNL1	0.002	
6	   C	-54.819	48.184	9.059	C.3	1	UNL1	0.032	
7	   C	-52.882	46.975	11.078	C.2	1	UNL1	0.103	
8	   C	-53.204	46.011	10.126	C.2	1	UNL1	0.047	
9	   C	-52.924	44.669	10.381	C.2	1	UNL1	-0.049	
10	   C	-52.325	44.296	11.584	C.2	1	UNL1	0.010	
11	   C	-52.006	45.267	12.533	C.2	1	UNL1	0.040	
12	   C	-52.285	46.610	12.280	C.2	1	UNL1	0.101	
13	   C	-53.270	43.615	9.351	C.3	1	UNL1	0.045	
14	   C	-53.637	44.137	7.961	C.3	1	UNL1	0.132	
15	   C	-52.531	42.086	7.662	C.2	1	UNL1	0.218	
16	   C	-52.154	42.602	9.029	C.3	1	UNL1	0.113	
17	   C	-51.585	47.076	14.503	C.3	1	UNL1	0.210	
18	   O	-53.164	48.290	10.816	O.3	1	UNL1	-0.343	
19	   O	-52.108	41.062	7.150	O.2	1	UNL1	-0.274	
20	   O	-51.970	47.549	13.215	O.3	1	UNL1	-0.353	
21	   H	-53.798	42.915	6.206	 H	1	UNL1	0.162	
@<TRIPOS>BOND
1 1 15 1
2 1 21 1
3 2 3 1
4 2 6 1
5 3 4 1
6 4 5 1
7 5 6 1
8 7 8 ar
9 7 12 ar
10 8 9 ar
11 9 10 ar
12 9 13 1
13 10 11 ar
14 11 12 ar
15 12 20 1
16 13 14 1
17 13 16 1
18 1 14 1
19 15 16 1
20 15 19 2
21 2 18 1
22 7 18 1
23 17 20 1
@<TRIPOS>SUBSTRUCTURE
1	UNL1	1	GROUP	1 ****	UNL
