# created with PyMOL 2.6.2
@<TRIPOS>MOLECULE
rolS_rep1_out
21 23 1                 
SMALL
USER_CHARGES
@<TRIPOS>ATOM
1	   N	33.081	71.938	20.700	N.pl3	1	UNL1	-0.360	
2	   C	31.830	77.279	17.723	C.3	1	UNL1	0.129	
3	   C	32.246	78.362	16.737	C.3	1	UNL1	0.032	
4	   C	30.943	78.782	16.058	C.3	1	UNL1	0.002	
5	   C	29.973	77.614	16.232	C.3	1	UNL1	0.002	
6	   C	30.750	76.523	16.966	C.3	1	UNL1	0.032	
7	   C	31.689	77.375	20.094	C.2	1	UNL1	0.103	
8	   C	31.824	75.997	20.235	C.2	1	UNL1	0.047	
9	   C	32.232	75.465	21.458	C.2	1	UNL1	-0.049	
10	   C	32.501	76.311	22.534	C.2	1	UNL1	0.010	
11	   C	32.363	77.691	22.386	C.2	1	UNL1	0.040	
12	   C	31.955	78.225	21.163	C.2	1	UNL1	0.101	
13	   C	32.383	73.967	21.618	C.3	1	UNL1	0.045	
14	   C	32.426	73.159	20.321	C.3	1	UNL1	0.132	
15	   C	33.826	72.071	21.863	C.2	1	UNL1	0.218	
16	   C	33.665	73.496	22.333	C.3	1	UNL1	0.113	
17	   C	31.913	80.353	22.221	C.3	1	UNL1	0.210	
18	   O	31.287	77.886	18.888	O.3	1	UNL1	-0.343	
19	   O	34.524	71.224	22.398	O.2	1	UNL1	-0.274	
20	   O	31.823	79.574	21.031	O.3	1	UNL1	-0.353	
21	   H	33.009	71.099	20.190	 H	1	UNL1	0.162	
@<TRIPOS>BOND
1 1 15 1
2 1 21 1
3 2 3 1
4 2 6 1
5 3 4 1
6 4 5 1
7 5 6 1
8 7 8 ar
9 7 12 ar
10 8 9 ar
11 9 10 ar
12 9 13 1
13 10 11 ar
14 11 12 ar
15 12 20 1
16 13 14 1
17 13 16 1
18 1 14 1
19 15 16 1
20 15 19 2
21 2 18 1
22 7 18 1
23 17 20 1
@<TRIPOS>SUBSTRUCTURE
1	UNL1	1	GROUP	1 ****	UNL
