# created with PyMOL 2.6.2
@<TRIPOS>MOLECULE
rolS_rep1_out
21 23 1                 
SMALL
USER_CHARGES
@<TRIPOS>ATOM
1	   N	-48.722	41.848	11.171	N.pl3	1	UNL1	-0.360	
2	   C	-53.947	46.187	9.304	C.3	1	UNL1	0.129	
3	   C	-55.441	46.234	9.021	C.3	1	UNL1	0.032	
4	   C	-55.720	47.696	8.674	C.3	1	UNL1	0.002	
5	   C	-54.581	48.507	9.291	C.3	1	UNL1	0.002	
6	   C	-53.693	47.503	10.022	C.3	1	UNL1	0.032	
7	   C	-52.449	45.048	7.851	C.2	1	UNL1	0.103	
8	   C	-51.438	44.743	8.757	C.2	1	UNL1	0.047	
9	   C	-50.630	43.627	8.540	C.2	1	UNL1	-0.049	
10	   C	-50.836	42.823	7.419	C.2	1	UNL1	0.010	
11	   C	-51.851	43.135	6.515	C.2	1	UNL1	0.040	
12	   C	-52.660	44.251	6.731	C.2	1	UNL1	0.101	
13	   C	-49.529	43.288	9.522	C.3	1	UNL1	0.045	
14	   C	-49.949	42.451	10.731	C.3	1	UNL1	0.132	
15	   C	-47.754	41.819	10.178	C.2	1	UNL1	0.218	
16	   C	-48.356	42.466	8.954	C.3	1	UNL1	0.113	
17	   C	-54.885	43.857	5.994	C.3	1	UNL1	0.210	
18	   O	-53.235	46.148	8.074	O.3	1	UNL1	-0.343	
19	   O	-46.638	41.330	10.243	O.2	1	UNL1	-0.274	
20	   O	-53.647	44.547	5.840	O.3	1	UNL1	-0.353	
21	   H	-48.583	41.492	12.079	 H	1	UNL1	0.162	
@<TRIPOS>BOND
1 1 15 1
2 1 21 1
3 2 3 1
4 2 6 1
5 3 4 1
6 4 5 1
7 5 6 1
8 7 8 ar
9 7 12 ar
10 8 9 ar
11 9 10 ar
12 9 13 1
13 10 11 ar
14 11 12 ar
15 12 20 1
16 13 14 1
17 13 16 1
18 1 14 1
19 15 16 1
20 15 19 2
21 2 18 1
22 7 18 1
23 17 20 1
@<TRIPOS>SUBSTRUCTURE
1	UNL1	1	GROUP	1 ****	UNL
