# created with PyMOL 2.6.2
@<TRIPOS>MOLECULE
rolS_rep2_out
21 23 1                 
SMALL
USER_CHARGES
@<TRIPOS>ATOM
1	   N	-51.989	47.666	6.551	N.pl3	1	UNL1	-0.360	
2	   C	-51.334	45.816	12.485	C.3	1	UNL1	0.129	
3	   C	-51.764	44.357	12.532	C.3	1	UNL1	0.032	
4	   C	-51.549	43.941	13.986	C.3	1	UNL1	0.002	
5	   C	-50.527	44.919	14.565	C.3	1	UNL1	0.002	
6	   C	-50.135	45.850	13.420	C.3	1	UNL1	0.032	
7	   C	-52.841	47.627	12.168	C.2	1	UNL1	0.103	
8	   C	-52.803	47.436	10.790	C.2	1	UNL1	0.047	
9	   C	-53.268	48.441	9.941	C.2	1	UNL1	-0.049	
10	   C	-53.766	49.630	10.473	C.2	1	UNL1	0.010	
11	   C	-53.800	49.815	11.854	C.2	1	UNL1	0.040	
12	   C	-53.337	48.811	12.705	C.2	1	UNL1	0.101	
13	   C	-53.231	48.240	8.441	C.3	1	UNL1	0.045	
14	   C	-51.860	48.394	7.781	C.3	1	UNL1	0.132	
15	   C	-53.026	46.744	6.582	C.2	1	UNL1	0.218	
16	   C	-53.674	46.852	7.941	C.3	1	UNL1	0.113	
17	   C	-52.126	49.204	14.713	C.3	1	UNL1	0.210	
18	   O	-52.381	46.633	12.991	O.3	1	UNL1	-0.343	
19	   O	-53.343	45.954	5.707	O.2	1	UNL1	-0.274	
20	   O	-53.374	49.003	14.053	O.3	1	UNL1	-0.353	
21	   H	-51.406	47.804	5.770	 H	1	UNL1	0.162	
@<TRIPOS>BOND
1 1 15 1
2 1 21 1
3 2 3 1
4 2 6 1
5 3 4 1
6 4 5 1
7 5 6 1
8 7 8 ar
9 7 12 ar
10 8 9 ar
11 9 10 ar
12 9 13 1
13 10 11 ar
14 11 12 ar
15 12 20 1
16 13 14 1
17 13 16 1
18 1 14 1
19 15 16 1
20 15 19 2
21 2 18 1
22 7 18 1
23 17 20 1
@<TRIPOS>SUBSTRUCTURE
1	UNL1	1	GROUP	1 ****	UNL
