# created with PyMOL 2.6.2
@<TRIPOS>MOLECULE
rolS_rep1_out
21 23 1                 
SMALL
USER_CHARGES
@<TRIPOS>ATOM
1	   N	34.438	72.672	20.730	N.pl3	1	UNL1	-0.360	
2	   C	30.952	78.293	21.880	C.3	1	UNL1	0.129	
3	   C	30.137	79.391	22.549	C.3	1	UNL1	0.032	
4	   C	31.076	80.596	22.588	C.3	1	UNL1	0.002	
5	   C	32.495	80.037	22.483	C.3	1	UNL1	0.002	
6	   C	32.350	78.517	22.435	C.3	1	UNL1	0.032	
7	   C	31.161	77.383	19.694	C.2	1	UNL1	0.103	
8	   C	31.706	76.243	20.277	C.2	1	UNL1	0.047	
9	   C	31.936	75.111	19.495	C.2	1	UNL1	-0.049	
10	   C	31.623	75.125	18.135	C.2	1	UNL1	0.010	
11	   C	31.078	76.272	17.558	C.2	1	UNL1	0.040	
12	   C	30.846	77.404	18.339	C.2	1	UNL1	0.101	
13	   C	32.527	73.866	20.121	C.3	1	UNL1	0.045	
14	   C	33.938	73.495	19.664	C.3	1	UNL1	0.132	
15	   C	33.752	72.866	21.921	C.2	1	UNL1	0.218	
16	   C	32.684	73.899	21.654	C.3	1	UNL1	0.113	
17	   C	30.113	78.486	16.353	C.3	1	UNL1	0.210	
18	   O	30.941	78.489	20.472	O.3	1	UNL1	-0.343	
19	   O	33.980	72.346	23.001	O.2	1	UNL1	-0.274	
20	   O	30.315	78.519	17.764	O.3	1	UNL1	-0.353	
21	   H	35.185	72.040	20.627	 H	1	UNL1	0.162	
@<TRIPOS>BOND
1 1 15 1
2 1 21 1
3 2 3 1
4 2 6 1
5 3 4 1
6 4 5 1
7 5 6 1
8 7 8 ar
9 7 12 ar
10 8 9 ar
11 9 10 ar
12 9 13 1
13 10 11 ar
14 11 12 ar
15 12 20 1
16 13 14 1
17 13 16 1
18 1 14 1
19 15 16 1
20 15 19 2
21 2 18 1
22 7 18 1
23 17 20 1
@<TRIPOS>SUBSTRUCTURE
1	UNL1	1	GROUP	1 ****	UNL
