# created with PyMOL 2.6.2
@<TRIPOS>MOLECULE
rolS_rep1_out
21 23 1                 
SMALL
USER_CHARGES
@<TRIPOS>ATOM
1	   N	-50.415	39.101	8.628	N.pl3	1	UNL1	-0.360	
2	   C	-53.053	45.187	8.713	C.3	1	UNL1	0.129	
3	   C	-54.486	45.396	9.180	C.3	1	UNL1	0.032	
4	   C	-54.708	46.904	9.073	C.3	1	UNL1	0.002	
5	   C	-53.320	47.544	9.106	C.3	1	UNL1	0.002	
6	   C	-52.327	46.398	9.280	C.3	1	UNL1	0.032	
7	   C	-52.197	44.286	6.686	C.2	1	UNL1	0.103	
8	   C	-51.634	43.271	7.453	C.2	1	UNL1	0.047	
9	   C	-50.803	42.328	6.848	C.2	1	UNL1	-0.049	
10	   C	-50.537	42.407	5.481	C.2	1	UNL1	0.010	
11	   C	-51.104	43.427	4.718	C.2	1	UNL1	0.040	
12	   C	-51.937	44.370	5.322	C.2	1	UNL1	0.101	
13	   C	-50.188	41.220	7.676	C.3	1	UNL1	0.045	
14	   C	-51.175	40.297	8.392	C.3	1	UNL1	0.132	
15	   C	-49.317	38.992	7.786	C.2	1	UNL1	0.218	
16	   C	-49.311	40.216	6.903	C.3	1	UNL1	0.113	
17	   C	-51.684	45.889	3.511	C.3	1	UNL1	0.210	
18	   O	-53.012	45.207	7.292	O.3	1	UNL1	-0.343	
19	   O	-48.520	38.069	7.722	O.2	1	UNL1	-0.274	
20	   O	-52.484	45.363	4.567	O.3	1	UNL1	-0.353	
21	   H	-50.647	38.432	9.312	 H	1	UNL1	0.162	
@<TRIPOS>BOND
1 1 15 1
2 1 21 1
3 2 3 1
4 2 6 1
5 3 4 1
6 4 5 1
7 5 6 1
8 7 8 ar
9 7 12 ar
10 8 9 ar
11 9 10 ar
12 9 13 1
13 10 11 ar
14 11 12 ar
15 12 20 1
16 13 14 1
17 13 16 1
18 1 14 1
19 15 16 1
20 15 19 2
21 2 18 1
22 7 18 1
23 17 20 1
@<TRIPOS>SUBSTRUCTURE
1	UNL1	1	GROUP	1 ****	UNL
